<?xml version="1.0" encoding="UTF-8"?>

<!-- generated on Sun Oct 15 14:35:21 2017 by SUMO netconvert Version 0.25.0
<?xml version="1.0" encoding="UTF-8"?>

<configuration xmlns:xsi="http://www.w3.org/2001/XMLSchema-instance" xsi:noNamespaceSchemaLocation="http://sumo.dlr.de/xsd/netconvertConfiguration.xsd">

    <input>
        <type-files value="/home/srivatsan/sumo-0.26.0/data/typemap/osmNetconvert.typ.xml"/>
        <osm-files value="map.osm"/>
    </input>

    <output>
        <output-file value="map.net.xml"/>
    </output>

    <projection>
        <proj.utm value="true"/>
    </projection>

</configuration>
-->

<net version="0.25" xmlns:xsi="http://www.w3.org/2001/XMLSchema-instance" xsi:noNamespaceSchemaLocation="http://sumo.dlr.de/xsd/net_file.xsd">

    <location netOffset="-403930.70,-1428714.16" convBoundary="0.00,0.00,11528.89,10299.80" origBoundary="80.114396,12.922344,80.220377,13.015813" projParameter="+proj=utm +zone=44 +ellps=WGS84 +datum=WGS84 +units=m +no_defs"/>

    <type id="highway.bridleway" priority="1" numLanes="1" speed="2.78" allow="pedestrian" oneway="1" width="2.00"/>
    <type id="highway.bus_guideway" priority="1" numLanes="1" speed="8.33" allow="bus" oneway="1"/>
    <type id="highway.cycleway" priority="1" numLanes="1" speed="5.56" allow="bicycle" oneway="0" width="1.00"/>
    <type id="highway.footway" priority="1" numLanes="1" speed="8.33" allow="pedestrian" oneway="1" width="2.00"/>
    <type id="highway.ford" priority="1" numLanes="1" speed="2.78" allow="army" oneway="0"/>
    <type id="highway.living_street" priority="3" numLanes="1" speed="2.78" disallow="tram rail_urban rail rail_electric ship" oneway="0"/>
    <type id="highway.motorway" priority="13" numLanes="2" speed="44.44" allow="private emergency authority army vip passenger hov taxi bus coach delivery truck trailer motorcycle evehicle custom1 custom2" oneway="1"/>
    <type id="highway.motorway_link" priority="12" numLanes="1" speed="22.22" allow="private emergency authority army vip passenger hov taxi bus coach delivery truck trailer motorcycle evehicle custom1 custom2" oneway="1"/>
    <type id="highway.path" priority="1" numLanes="1" speed="2.78" allow="bicycle pedestrian" oneway="1" width="2.00"/>
    <type id="highway.pedestrian" priority="1" numLanes="1" speed="8.33" allow="pedestrian" oneway="1" width="2.00"/>
    <type id="highway.primary" priority="9" numLanes="2" speed="27.78" disallow="tram rail_urban rail rail_electric ship" oneway="0"/>
    <type id="highway.primary_link" priority="8" numLanes="1" speed="22.22" disallow="tram rail_urban rail rail_electric ship" oneway="0"/>
    <type id="highway.raceway" priority="14" numLanes="2" speed="83.33" allow="vip" oneway="0"/>
    <type id="highway.residential" priority="4" numLanes="1" speed="13.89" disallow="tram rail_urban rail rail_electric ship" oneway="0"/>
    <type id="highway.secondary" priority="7" numLanes="2" speed="27.78" disallow="tram rail_urban rail rail_electric ship" oneway="0"/>
    <type id="highway.secondary_link" priority="6" numLanes="1" speed="22.22" disallow="tram rail_urban rail rail_electric ship" oneway="0"/>
    <type id="highway.service" priority="2" numLanes="1" speed="5.56" allow="delivery bicycle pedestrian" oneway="0"/>
    <type id="highway.services" priority="1" numLanes="1" speed="8.33" disallow="tram rail_urban rail rail_electric ship" oneway="0"/>
    <type id="highway.stairs" priority="1" numLanes="1" speed="1.39" allow="pedestrian" oneway="1" width="2.00"/>
    <type id="highway.step" priority="1" numLanes="1" speed="1.39" allow="pedestrian" oneway="1" width="2.00"/>
    <type id="highway.steps" priority="1" numLanes="1" speed="1.39" allow="pedestrian" oneway="1" width="2.00"/>
    <type id="highway.tertiary" priority="6" numLanes="1" speed="22.22" disallow="tram rail_urban rail rail_electric ship" oneway="0"/>
    <type id="highway.tertiary_link" priority="5" numLanes="1" speed="22.22" disallow="tram rail_urban rail rail_electric ship" oneway="0"/>
    <type id="highway.track" priority="1" numLanes="1" speed="5.56" disallow="tram rail_urban rail rail_electric ship" oneway="0"/>
    <type id="highway.trunk" priority="11" numLanes="2" speed="27.78" disallow="tram rail_urban rail rail_electric bicycle pedestrian ship" oneway="0"/>
    <type id="highway.trunk_link" priority="10" numLanes="1" speed="22.22" disallow="tram rail_urban rail rail_electric bicycle pedestrian ship" oneway="0"/>
    <type id="highway.unclassified" priority="5" numLanes="1" speed="13.89" disallow="tram rail_urban rail rail_electric ship" oneway="0"/>
    <type id="highway.unsurfaced" priority="1" numLanes="1" speed="8.33" disallow="tram rail_urban rail rail_electric ship" oneway="0"/>
    <type id="railway.light_rail" priority="15" numLanes="1" speed="27.78" allow="rail_urban" oneway="1"/>
    <type id="railway.preserved" priority="15" numLanes="1" speed="27.78" allow="rail" oneway="1"/>
    <type id="railway.rail" priority="15" numLanes="1" speed="83.33" allow="rail rail_electric" oneway="1"/>
    <type id="railway.subway" priority="15" numLanes="1" speed="27.78" allow="rail_urban" oneway="1"/>
    <type id="railway.tram" priority="15" numLanes="1" speed="13.89" allow="tram" oneway="1"/>

    <edge id=":2039510878_0" function="internal">
        <lane id=":2039510878_0_0" index="0" disallow="tram rail_urban rail rail_electric bicycle pedestrian ship" speed="11.11" length="0.10" shape="3791.23,4964.43 3791.24,4964.45"/>
        <lane id=":2039510878_0_1" index="1" disallow="tram rail_urban rail rail_electric bicycle pedestrian ship" speed="11.11" length="0.10" shape="3794.24,4963.07 3794.24,4963.07"/>
    </edge>
    <edge id=":2091840475_0" function="internal">
        <lane id=":2091840475_0_0" index="0" disallow="tram rail_urban rail rail_electric bicycle pedestrian ship" speed="11.11" length="0.10" shape="2926.33,3358.70 2926.33,3358.70"/>
        <lane id=":2091840475_0_1" index="1" disallow="tram rail_urban rail rail_electric bicycle pedestrian ship" speed="11.11" length="0.10" shape="2923.70,3360.69 2923.70,3360.69"/>
    </edge>
    <edge id=":2091840477_0" function="internal">
        <lane id=":2091840477_0_0" index="0" disallow="tram rail_urban rail rail_electric bicycle pedestrian ship" speed="11.11" length="0.10" shape="2935.22,3352.78 2935.22,3352.78"/>
        <lane id=":2091840477_0_1" index="1" disallow="tram rail_urban rail rail_electric bicycle pedestrian ship" speed="11.11" length="0.10" shape="2937.92,3350.89 2937.92,3350.89"/>
    </edge>
    <edge id=":2091840486_0" function="internal">
        <lane id=":2091840486_0_0" index="0" disallow="tram rail_urban rail rail_electric ship" speed="12.50" length="5.07" shape="2747.02,3098.20 2746.03,3097.21 2744.98,3096.79 2743.86,3096.95 2742.67,3097.69"/>
    </edge>
    <edge id=":2091840486_1" function="internal">
        <lane id=":2091840486_1_0" index="0" disallow="tram rail_urban rail rail_electric bicycle pedestrian ship" speed="11.11" length="9.51" shape="2747.02,3098.20 2741.35,3090.57"/>
        <lane id=":2091840486_1_1" index="1" disallow="tram rail_urban rail rail_electric bicycle pedestrian ship" speed="11.11" length="9.51" shape="2749.67,3096.23 2743.99,3088.60"/>
    </edge>
    <edge id=":2091840486_3" function="internal">
        <lane id=":2091840486_3_0" index="0" disallow="tram rail_urban rail rail_electric bicycle pedestrian ship" speed="12.50" length="5.25" shape="2740.54,3095.17 2741.57,3094.06 2742.04,3092.93 2741.97,3091.76 2741.35,3090.57"/>
    </edge>
    <edge id=":2091840486_4" function="internal">
        <lane id=":2091840486_4_0" index="0" disallow="tram rail_urban rail rail_electric ship" speed="13.89" length="2.69" shape="2740.54,3095.17 2742.02,3095.00 2742.87,3095.37 2742.93,3095.64"/>
    </edge>
    <edge id=":2091840486_5" function="internal">
        <lane id=":2091840486_5_0" index="0" speed="13.89" length="2.13" shape="2742.93,3095.64 2743.08,3096.26 2742.67,3097.69"/>
    </edge>
    <edge id=":2091842228_0" function="internal">
        <lane id=":2091842228_0_0" index="0" disallow="tram rail_urban rail rail_electric bicycle pedestrian ship" speed="11.11" length="0.10" shape="3130.92,3744.89 3130.90,3744.85"/>
        <lane id=":2091842228_0_1" index="1" disallow="tram rail_urban rail rail_electric bicycle pedestrian ship" speed="11.11" length="0.10" shape="3127.93,3746.28 3127.94,3746.30"/>
    </edge>
    <edge id=":249211099_0" function="internal">
        <lane id=":249211099_0_0" index="0" allow="delivery bicycle pedestrian" speed="5.56" length="4.82" shape="2827.37,2915.93 2828.86,2915.98 2829.64,2916.47 2829.73,2917.39 2829.11,2918.74"/>
    </edge>
    <edge id=":249211141_0" function="internal">
        <lane id=":249211141_0_0" index="0" allow="delivery bicycle pedestrian" speed="9.73" length="4.43" shape="2936.42,3224.83 2932.47,3226.82"/>
    </edge>
    <edge id=":249211141_1" function="internal">
        <lane id=":249211141_1_0" index="0" allow="delivery bicycle pedestrian" speed="9.73" length="9.95" shape="2936.42,3224.83 2933.95,3225.63 2931.69,3225.47 2929.64,3224.36 2927.80,3222.31"/>
    </edge>
    <edge id=":249211141_2" function="internal">
        <lane id=":249211141_2_0" index="0" disallow="tram rail_urban rail rail_electric ship" speed="13.89" length="4.82" shape="2936.42,3224.83 2934.95,3224.64 2934.21,3224.08 2934.22,3223.16 2934.96,3221.87"/>
    </edge>
    <edge id=":249211141_3" function="internal">
        <lane id=":249211141_3_0" index="0" disallow="tram rail_urban rail rail_electric ship" speed="9.73" length="5.16" shape="2930.52,3220.44 2931.49,3221.55 2932.56,3222.15 2933.71,3222.26 2934.96,3221.87"/>
    </edge>
    <edge id=":249211141_4" function="internal">
        <lane id=":249211141_4_0" index="0" allow="delivery bicycle pedestrian" speed="5.56" length="7.11" shape="2930.52,3220.44 2931.99,3222.80 2932.80,3224.65 2932.96,3225.99 2932.47,3226.82"/>
    </edge>
    <edge id=":249211141_5" function="internal">
        <lane id=":249211141_5_0" index="0" allow="delivery bicycle pedestrian" speed="5.56" length="4.82" shape="2930.52,3220.44 2930.54,3221.93 2930.09,3222.74 2929.18,3222.86 2927.80,3222.31"/>
    </edge>
    <edge id=":249211141_6" function="internal">
        <lane id=":249211141_6_0" index="0" allow="delivery bicycle pedestrian" speed="5.56" length="4.82" shape="2927.18,3226.51 2928.10,3225.62 2928.51,3224.63 2928.41,3223.52 2927.80,3222.31"/>
    </edge>
    <edge id=":249211141_7" function="internal">
        <lane id=":249211141_7_0" index="0" disallow="tram rail_urban rail rail_electric ship" speed="9.73" length="9.05" shape="2927.18,3226.51 2934.96,3221.87"/>
    </edge>
    <edge id=":249211141_8" function="internal">
        <lane id=":249211141_8_0" index="0" allow="delivery bicycle pedestrian" speed="5.56" length="7.73" shape="2927.18,3226.51 2928.62,3224.60 2929.98,3224.02 2931.26,3224.76 2932.47,3226.82"/>
    </edge>
    <edge id=":249211274_0" function="internal">
        <lane id=":249211274_0_0" index="0" allow="delivery bicycle pedestrian" speed="5.56" length="9.38" shape="2857.15,3119.03 2851.75,3111.37"/>
    </edge>
    <edge id=":249211274_1" function="internal">
        <lane id=":249211274_1_0" index="0" allow="delivery bicycle pedestrian" speed="5.56" length="10.27" shape="2857.15,3119.03 2855.96,3116.59 2855.83,3114.27 2856.77,3112.09 2858.76,3110.03"/>
    </edge>
    <edge id=":249211274_2" function="internal">
        <lane id=":249211274_2_0" index="0" allow="delivery bicycle pedestrian" speed="5.56" length="4.82" shape="2857.15,3119.03 2857.13,3117.54 2857.58,3116.74 2858.49,3116.61 2859.87,3117.17"/>
    </edge>
    <edge id=":249211274_3" function="internal">
        <lane id=":249211274_3_0" index="0" allow="delivery bicycle pedestrian" speed="5.56" length="5.21" shape="2860.80,3112.63 2859.76,3113.69 2859.26,3114.80 2859.30,3115.96 2859.87,3117.17"/>
    </edge>
    <edge id=":249211274_4" function="internal">
        <lane id=":249211274_4_0" index="0" allow="delivery bicycle pedestrian" speed="5.56" length="10.53" shape="2860.80,3112.63 2858.29,3114.08 2855.95,3114.35 2853.76,3113.45 2851.75,3111.37"/>
    </edge>
    <edge id=":249211274_5" function="internal">
        <lane id=":249211274_5_0" index="0" allow="delivery bicycle pedestrian" speed="5.56" length="4.82" shape="2860.80,3112.63 2859.32,3112.74 2858.49,3112.35 2858.30,3111.45 2858.76,3110.03"/>
    </edge>
    <edge id=":249211274_6" function="internal">
        <lane id=":249211274_6_0" index="0" allow="delivery bicycle pedestrian" speed="5.56" length="5.05" shape="2854.42,3109.43 2855.39,3110.43 2856.43,3110.86 2857.56,3110.73 2858.76,3110.03"/>
    </edge>
    <edge id=":249211274_7" function="internal">
        <lane id=":249211274_7_0" index="0" allow="delivery bicycle pedestrian" speed="5.56" length="9.47" shape="2854.42,3109.43 2859.87,3117.17"/>
    </edge>
    <edge id=":249211274_8" function="internal">
        <lane id=":249211274_8_0" index="0" allow="delivery bicycle pedestrian" speed="5.56" length="4.82" shape="2854.42,3109.43 2854.48,3110.92 2854.05,3111.73 2853.14,3111.88 2851.75,3111.37"/>
    </edge>
    <edge id=":249272457_0" function="internal">
        <lane id=":249272457_0_0" index="0" disallow="tram rail_urban rail rail_electric bicycle pedestrian ship" speed="11.11" length="8.98" shape="2926.39,3358.78 2931.53,3366.36"/>
        <lane id=":249272457_0_1" index="1" disallow="tram rail_urban rail rail_electric bicycle pedestrian ship" speed="11.11" length="8.98" shape="2923.76,3360.77 2928.69,3368.04"/>
    </edge>
    <edge id=":249272457_2" function="internal">
        <lane id=":249272457_2_0" index="0" disallow="tram rail_urban rail rail_electric ship" speed="16.67" length="8.10" shape="2923.76,3360.77 2925.06,3362.99 2925.29,3364.77 2924.45,3366.13 2922.53,3367.04"/>
    </edge>
    <edge id=":249272457_3" function="internal">
        <lane id=":249272457_3_0" index="0" disallow="tram rail_urban rail rail_electric bicycle pedestrian ship" speed="16.67" length="8.87" shape="2921.62,3363.87 2923.54,3363.71 2925.36,3364.35 2927.08,3365.79 2928.69,3368.04"/>
    </edge>
    <edge id=":249272457_4" function="internal">
        <lane id=":249272457_4_0" index="0" disallow="tram rail_urban rail rail_electric ship" speed="22.22" length="4.82" shape="2921.62,3363.87 2923.04,3364.32 2923.66,3365.00 2923.49,3365.91 2922.53,3367.04"/>
    </edge>
    <edge id=":251269172_0" function="internal">
        <lane id=":251269172_0_0" index="0" disallow="tram rail_urban rail rail_electric ship" speed="13.89" length="4.82" shape="2576.21,2643.60 2577.70,2643.64 2578.49,2644.11 2578.58,2645.03 2577.97,2646.39"/>
    </edge>
    <edge id=":251458000_0" function="internal">
        <lane id=":251458000_0_0" index="0" disallow="tram rail_urban rail rail_electric ship" speed="18.05" length="7.99" shape="2937.31,3237.78 2935.23,3237.81 2933.38,3237.33 2931.75,3236.32 2930.33,3234.80"/>
    </edge>
    <edge id=":251458000_1" function="internal">
        <lane id=":251458000_1_0" index="0" disallow="tram rail_urban rail rail_electric ship" speed="22.22" length="4.82" shape="2937.31,3237.78 2935.98,3237.13 2935.46,3236.36 2935.76,3235.49 2936.87,3234.51"/>
    </edge>
    <edge id=":251458000_2" function="internal">
        <lane id=":251458000_2_0" index="0" disallow="tram rail_urban rail rail_electric ship" speed="18.05" length="4.44" shape="2933.00,3232.85 2933.78,3233.70 2934.69,3234.26 2935.72,3234.53 2936.87,3234.51"/>
    </edge>
    <edge id=":251458000_3" function="internal">
        <lane id=":251458000_3_0" index="0" disallow="tram rail_urban rail rail_electric ship" speed="13.89" length="4.82" shape="2933.00,3232.85 2933.06,3234.34 2932.64,3235.16 2931.73,3235.31 2930.33,3234.80"/>
    </edge>
    <edge id=":251575856_0" function="internal">
        <lane id=":251575856_0_0" index="0" disallow="tram rail_urban rail rail_electric ship" speed="18.05" length="5.05" shape="3117.39,3202.59 3116.96,3201.27 3116.21,3200.42 3115.14,3200.04 3113.75,3200.14"/>
    </edge>
    <edge id=":251575856_1" function="internal">
        <lane id=":251575856_1_0" index="0" disallow="tram rail_urban rail rail_electric ship" speed="18.05" length="9.35" shape="3117.39,3202.59 3116.27,3193.31"/>
    </edge>
    <edge id=":251575856_2" function="internal">
        <lane id=":251575856_2_0" index="0" disallow="tram rail_urban rail rail_electric ship" speed="13.89" length="4.82" shape="3117.39,3202.59 3117.99,3201.23 3118.73,3200.69 3119.62,3200.95 3120.64,3202.03"/>
    </edge>
    <edge id=":251575856_3" function="internal">
        <lane id=":251575856_3_0" index="0" disallow="tram rail_urban rail rail_electric ship" speed="18.05" length="8.99" shape="3119.56,3193.11 3120.64,3202.03"/>
    </edge>
    <edge id=":251575856_4" function="internal">
        <lane id=":251575856_4_0" index="0" disallow="tram rail_urban rail rail_electric ship" speed="22.22" length="10.09" shape="3119.56,3193.11 3119.33,3195.68 3118.29,3197.72 3116.43,3199.20 3113.75,3200.14"/>
    </edge>
    <edge id=":251575856_5" function="internal">
        <lane id=":251575856_5_0" index="0" disallow="tram rail_urban rail rail_electric ship" speed="22.22" length="2.72" shape="3119.56,3193.11 3118.81,3194.39 3118.02,3194.86 3117.73,3194.73"/>
    </edge>
    <edge id=":251575856_9" function="internal">
        <lane id=":251575856_9_0" index="0" speed="22.22" length="2.10" shape="3117.73,3194.73 3117.17,3194.50 3116.27,3193.31"/>
    </edge>
    <edge id=":251575856_6" function="internal">
        <lane id=":251575856_6_0" index="0" disallow="tram rail_urban rail rail_electric ship" speed="22.22" length="5.33" shape="3113.05,3196.92 3114.53,3196.42 3115.55,3195.65 3116.13,3194.61 3116.27,3193.31"/>
    </edge>
    <edge id=":251575856_7" function="internal">
        <lane id=":251575856_7_0" index="0" disallow="tram rail_urban rail rail_electric ship" speed="18.05" length="3.66" shape="3113.05,3196.92 3115.95,3196.71 3116.67,3196.96"/>
    </edge>
    <edge id=":251575856_8" function="internal">
        <lane id=":251575856_8_0" index="0" disallow="tram rail_urban rail rail_electric ship" speed="22.22" length="2.23" shape="3113.05,3196.92 3114.44,3197.46 3114.90,3198.04"/>
    </edge>
    <edge id=":251575856_10" function="internal">
        <lane id=":251575856_10_0" index="0" speed="18.05" length="6.88" shape="3116.67,3196.96 3118.18,3197.50 3119.74,3199.27 3120.64,3202.03"/>
    </edge>
    <edge id=":251575856_11" function="internal">
        <lane id=":251575856_11_0" index="0" speed="22.22" length="2.59" shape="3114.90,3198.04 3115.02,3198.18 3114.79,3199.07 3113.75,3200.14"/>
    </edge>
    <edge id=":251575857_0" function="internal">
        <lane id=":251575857_0_0" index="0" disallow="tram rail_urban rail rail_electric ship" speed="18.05" length="13.36" shape="3115.82,3186.24 3115.93,3182.78 3116.62,3179.69 3117.74,3176.67 3119.11,3173.43"/>
    </edge>
    <edge id=":251575857_1" function="internal">
        <lane id=":251575857_1_0" index="0" disallow="tram rail_urban rail rail_electric ship" speed="22.22" length="13.35" shape="3115.82,3186.24 3116.27,3183.75 3117.95,3181.50 3120.85,3179.50 3124.99,3177.74"/>
    </edge>
    <edge id=":251575857_2" function="internal">
        <lane id=":251575857_2_0" index="0" disallow="tram rail_urban rail rail_electric ship" speed="22.22" length="2.91" shape="3115.82,3186.24 3116.57,3184.95 3117.37,3184.49 3117.83,3184.68"/>
    </edge>
    <edge id=":251575857_9" function="internal">
        <lane id=":251575857_9_0" index="0" speed="22.22" length="1.91" shape="3117.83,3184.68 3118.21,3184.85 3119.12,3186.03"/>
    </edge>
    <edge id=":251575857_3" function="internal">
        <lane id=":251575857_3_0" index="0" disallow="tram rail_urban rail rail_electric ship" speed="22.22" length="9.11" shape="3126.07,3180.85 3122.96,3182.10 3120.77,3183.38 3119.49,3184.69 3119.12,3186.03"/>
    </edge>
    <edge id=":251575857_4" function="internal">
        <lane id=":251575857_4_0" index="0" disallow="tram rail_urban rail rail_electric ship" speed="18.05" length="5.73" shape="3126.07,3180.85 3121.20,3181.92 3120.49,3181.69"/>
    </edge>
    <edge id=":251575857_5" function="internal">
        <lane id=":251575857_5_0" index="0" disallow="tram rail_urban rail rail_electric ship" speed="22.22" length="2.41" shape="3126.07,3180.85 3124.63,3180.48 3123.97,3179.83"/>
    </edge>
    <edge id=":251575857_10" function="internal">
        <lane id=":251575857_10_0" index="0" speed="18.05" length="10.06" shape="3120.49,3181.69 3118.43,3181.04 3117.73,3178.21 3119.11,3173.43"/>
    </edge>
    <edge id=":251575857_11" function="internal">
        <lane id=":251575857_11_0" index="0" speed="22.22" length="2.41" shape="3123.97,3179.83 3124.09,3178.92 3124.99,3177.74"/>
    </edge>
    <edge id=":251575857_6" function="internal">
        <lane id=":251575857_6_0" index="0" disallow="tram rail_urban rail rail_electric ship" speed="18.05" length="6.43" shape="3122.15,3174.71 3121.59,3176.66 3121.87,3177.81 3123.01,3178.17 3124.99,3177.74"/>
    </edge>
    <edge id=":251575857_7" function="internal">
        <lane id=":251575857_7_0" index="0" disallow="tram rail_urban rail rail_electric ship" speed="18.05" length="11.88" shape="3122.15,3174.71 3120.82,3177.72 3119.79,3180.23 3119.19,3182.80 3119.12,3186.03"/>
    </edge>
    <edge id=":251575857_8" function="internal">
        <lane id=":251575857_8_0" index="0" disallow="tram rail_urban rail rail_electric ship" speed="13.89" length="4.82" shape="3122.15,3174.71 3120.91,3175.53 3119.99,3175.59 3119.39,3174.89 3119.11,3173.43"/>
    </edge>
    <edge id=":251575862_0" function="internal">
        <lane id=":251575862_0_0" index="0" disallow="tram rail_urban rail rail_electric ship" speed="22.22" length="4.82" shape="3392.12,3085.35 3393.56,3085.72 3394.21,3086.37 3394.09,3087.28 3393.19,3088.47"/>
    </edge>
    <edge id=":251575864_0" function="internal">
        <lane id=":251575864_0_0" index="0" disallow="tram rail_urban rail rail_electric ship" speed="22.22" length="4.82" shape="3372.07,3040.82 3373.47,3041.33 3374.07,3042.03 3373.87,3042.93 3372.87,3044.03"/>
    </edge>
    <edge id=":251575865_0" function="internal">
        <lane id=":251575865_0_0" index="0" disallow="tram rail_urban rail rail_electric ship" speed="13.89" length="4.82" shape="3316.64,2923.34 3318.10,2923.60 3318.81,2924.19 3318.76,2925.12 3317.96,2926.37"/>
    </edge>
    <edge id=":2800560083_0" function="internal">
        <lane id=":2800560083_0_0" index="0" allow="delivery bicycle pedestrian" speed="5.56" length="9.76" shape="3213.08,3642.99 3207.78,3634.80"/>
    </edge>
    <edge id=":2800560083_1" function="internal">
        <lane id=":2800560083_1_0" index="0" disallow="tram rail_urban rail rail_electric ship" speed="9.73" length="11.86" shape="3213.08,3642.99 3211.66,3639.91 3211.74,3637.37 3213.31,3635.39 3216.39,3633.94"/>
    </edge>
    <edge id=":2800560083_2" function="internal">
        <lane id=":2800560083_2_0" index="0" allow="delivery bicycle pedestrian" speed="5.56" length="4.82" shape="3213.08,3642.99 3213.10,3641.50 3213.57,3640.71 3214.49,3640.61 3215.85,3641.20"/>
    </edge>
    <edge id=":2800560083_3" function="internal">
        <lane id=":2800560083_3_0" index="0" allow="delivery bicycle pedestrian" speed="9.73" length="5.37" shape="3217.35,3637.10 3215.96,3637.75 3215.25,3638.65 3215.21,3639.80 3215.85,3641.20"/>
    </edge>
    <edge id=":2800560083_4" function="internal">
        <lane id=":2800560083_4_0" index="0" allow="delivery bicycle pedestrian" speed="9.73" length="10.62" shape="3217.35,3637.10 3214.22,3637.73 3211.59,3637.55 3209.44,3636.58 3207.78,3634.80"/>
    </edge>
    <edge id=":2800560083_5" function="internal">
        <lane id=":2800560083_5_0" index="0" disallow="tram rail_urban rail rail_electric ship" speed="13.89" length="4.82" shape="3217.35,3637.10 3215.93,3636.67 3215.29,3636.00 3215.44,3635.09 3216.39,3633.94"/>
    </edge>
    <edge id=":2800560083_6" function="internal">
        <lane id=":2800560083_6_0" index="0" disallow="tram rail_urban rail rail_electric ship" speed="9.73" length="6.34" shape="3210.55,3633.00 3211.47,3633.91 3212.75,3634.38 3214.39,3634.39 3216.39,3633.94"/>
    </edge>
    <edge id=":2800560083_7" function="internal">
        <lane id=":2800560083_7_0" index="0" allow="delivery bicycle pedestrian" speed="5.56" length="9.76" shape="3210.55,3633.00 3215.85,3641.20"/>
    </edge>
    <edge id=":2800560083_8" function="internal">
        <lane id=":2800560083_8_0" index="0" allow="delivery bicycle pedestrian" speed="5.56" length="4.82" shape="3210.55,3633.00 3210.53,3634.49 3210.07,3635.29 3209.15,3635.39 3207.78,3634.80"/>
    </edge>
    <edge id=":2800560084_0" function="internal">
        <lane id=":2800560084_0_0" index="0" disallow="tram rail_urban rail rail_electric ship" speed="13.89" length="4.82" shape="3384.61,3582.51 3386.04,3582.94 3386.67,3583.61 3386.52,3584.52 3385.58,3585.67"/>
    </edge>
    <edge id=":280079539_0" function="internal">
        <lane id=":280079539_0_0" index="0" disallow="tram rail_urban rail rail_electric ship" speed="5.56" length="9.56" shape="3163.53,3326.42 3154.21,3328.56"/>
    </edge>
    <edge id=":280079539_1" function="internal">
        <lane id=":280079539_1_0" index="0" disallow="tram rail_urban rail rail_electric ship" speed="9.72" length="5.18" shape="3163.53,3326.42 3160.80,3326.65 3158.59,3325.91 3158.51,3325.83"/>
    </edge>
    <edge id=":280079539_2" function="internal">
        <lane id=":280079539_2_0" index="0" disallow="tram rail_urban rail rail_electric ship" speed="5.56" length="2.41" shape="3163.53,3326.42 3162.14,3325.90 3161.55,3325.19"/>
    </edge>
    <edge id=":280079539_9" function="internal">
        <lane id=":280079539_9_0" index="0" speed="9.72" length="5.19" shape="3158.51,3325.83 3156.89,3324.21 3155.72,3321.56"/>
    </edge>
    <edge id=":280079539_10" function="internal">
        <lane id=":280079539_10_0" index="0" speed="5.56" length="2.41" shape="3161.55,3325.19 3161.76,3324.30 3162.78,3323.21"/>
    </edge>
    <edge id=":280079539_3" function="internal">
        <lane id=":280079539_3_0" index="0" disallow="tram rail_urban rail rail_electric ship" speed="9.72" length="5.25" shape="3158.89,3320.64 3159.49,3322.02 3160.34,3322.91 3161.43,3323.31 3162.78,3323.21"/>
    </edge>
    <edge id=":280079539_4" function="internal">
        <lane id=":280079539_4_0" index="0" disallow="tram rail_urban rail rail_electric ship" speed="9.72" length="10.65" shape="3158.89,3320.64 3159.30,3323.55 3158.66,3325.84 3156.96,3327.51 3154.21,3328.56"/>
    </edge>
    <edge id=":280079539_5" function="internal">
        <lane id=":280079539_5_0" index="0" disallow="tram rail_urban rail rail_electric ship" speed="13.89" length="4.82" shape="3158.89,3320.64 3158.44,3322.05 3157.77,3322.68 3156.86,3322.52 3155.72,3321.56"/>
    </edge>
    <edge id=":280079539_6" function="internal">
        <lane id=":280079539_6_0" index="0" disallow="tram rail_urban rail rail_electric ship" speed="9.72" length="5.08" shape="3153.49,3325.34 3154.80,3324.84 3155.61,3324.04 3155.92,3322.95 3155.72,3321.56"/>
    </edge>
    <edge id=":280079539_7" function="internal">
        <lane id=":280079539_7_0" index="0" disallow="tram rail_urban rail rail_electric ship" speed="5.56" length="9.53" shape="3153.49,3325.34 3162.78,3323.21"/>
    </edge>
    <edge id=":280079539_8" function="internal">
        <lane id=":280079539_8_0" index="0" disallow="tram rail_urban rail rail_electric ship" speed="5.56" length="2.41" shape="3153.49,3325.34 3154.88,3325.87 3155.46,3326.59"/>
    </edge>
    <edge id=":280079539_11" function="internal">
        <lane id=":280079539_11_0" index="0" speed="5.56" length="2.41" shape="3155.46,3326.59 3155.24,3327.48 3154.21,3328.56"/>
    </edge>
    <edge id=":280079540_0" function="internal">
        <lane id=":280079540_0_0" index="0" disallow="tram rail_urban rail rail_electric ship" speed="5.56" length="6.95" shape="3299.08,3292.34 3292.52,3294.64"/>
    </edge>
    <edge id=":280079540_1" function="internal">
        <lane id=":280079540_1_0" index="0" disallow="tram rail_urban rail rail_electric ship" speed="9.72" length="5.16" shape="3299.08,3292.34 3296.55,3292.90 3294.19,3292.40 3294.06,3292.31"/>
    </edge>
    <edge id=":280079540_2" function="internal">
        <lane id=":280079540_2_0" index="0" disallow="tram rail_urban rail rail_electric ship" speed="5.56" length="2.56" shape="3299.08,3292.34 3297.62,3292.05 3296.92,3291.45 3296.93,3291.30"/>
    </edge>
    <edge id=":280079540_9" function="internal">
        <lane id=":280079540_9_0" index="0" speed="9.72" length="5.86" shape="3294.06,3292.31 3291.98,3290.85 3289.93,3288.24"/>
    </edge>
    <edge id=":280079540_10" function="internal">
        <lane id=":280079540_10_0" index="0" speed="5.56" length="2.26" shape="3296.93,3291.30 3296.98,3290.53 3297.81,3289.29"/>
    </edge>
    <edge id=":280079540_3" function="internal">
        <lane id=":280079540_3_0" index="0" disallow="tram rail_urban rail rail_electric ship" speed="9.72" length="6.34" shape="3292.72,3286.49 3293.96,3288.13 3295.22,3289.14 3296.50,3289.53 3297.81,3289.29"/>
    </edge>
    <edge id=":280079540_4" function="internal">
        <lane id=":280079540_4_0" index="0" disallow="tram rail_urban rail rail_electric ship" speed="9.72" length="9.77" shape="3292.72,3286.49 3294.36,3289.63 3294.88,3292.03 3294.26,3293.70 3292.52,3294.64"/>
    </edge>
    <edge id=":280079540_5" function="internal">
        <lane id=":280079540_5_0" index="0" disallow="tram rail_urban rail rail_electric ship" speed="13.89" length="4.82" shape="3292.72,3286.49 3292.68,3287.97 3292.20,3288.76 3291.28,3288.85 3289.93,3288.24"/>
    </edge>
    <edge id=":280079540_6" function="internal">