<?xml version="1.0" encoding="UTF-8"?>

<!-- generated on Sun Oct 15 14:36:46 2017 by SUMO polyconvert Version 0.25.0
<?xml version="1.0" encoding="UTF-8"?>

<configuration xmlns:xsi="http://www.w3.org/2001/XMLSchema-instance" xsi:noNamespaceSchemaLocation="http://sumo.dlr.de/xsd/polyconvertConfiguration.xsd">

    <input>
        <net-file value="map.net.xml"/>
        <osm-files value="map.osm"/>
        <type-file value="osmPolyconvert.typ.xml"/>
    </input>

    <output>
        <output-file value="map.poly.xml"/>
    </output>

    <processing>
        <poi-layer-offset value="5"/>
    </processing>

</configuration>
-->

<additional xmlns:xsi="http://www.w3.org/2001/XMLSchema-instance" xsi:noNamespaceSchemaLocation="http://sumo.dlr.de/xsd/additional_file.xsd">
    <location netOffset="-403930.70,-1428714.16" convBoundary="0.00,0.00,11528.89,10299.80" origBoundary="80.114396,12.922344,80.220377,13.015813" projParameter="+proj=utm +zone=44 +ellps=WGS84 +datum=WGS84 +units=m +no_defs"/>

    <poly id="125234686" type="amenity" color="237,199,199" fill="1" layer="-1.00" shape="2759.82,3182.59 2768.16,3176.30 2835.37,3264.40 2827.02,3270.67 2759.82,3182.59"/>
    <poly id="125234686#1" type="building" color="255,230,230" fill="1" layer="-1.00" shape="2759.82,3182.59 2768.16,3176.30 2835.37,3264.40 2827.02,3270.67 2759.82,3182.59"/>
    <poly id="125234701" type="amenity" color="237,199,199" fill="1" layer="-1.00" shape="2816.99,3176.52 2826.33,3168.89 2856.70,3211.25 2846.29,3217.15 2816.99,3176.52"/>
    <poly id="125234701#1" type="building" color="255,230,230" fill="1" layer="-1.00" shape="2816.99,3176.52 2826.33,3168.89 2856.70,3211.25 2846.29,3217.15 2816.99,3176.52"/>
    <poly id="125234701#2" type="industrial" color="209,209,204" fill="1" layer="-3.00" shape="2816.99,3176.52 2826.33,3168.89 2856.70,3211.25 2846.29,3217.15 2816.99,3176.52"/>
    <poly id="180145742" type="amenity" color="237,199,199" fill="1" layer="-1.00" shape="2294.19,3547.29 2301.85,3584.75 2271.22,3590.94 2310.82,3723.88 2350.33,3721.19 2372.88,3789.51 2597.42,3697.14 2671.54,3722.20 2745.49,3698.05 2734.58,3677.93 2779.74,3645.92 2768.27,3602.39 2794.17,3590.58 2741.74,3421.62 2331.78,3532.63 2294.19,3547.29"/>
    <poly id="30749075" type="amenity" color="237,199,199" fill="1" layer="-1.00" shape="2852.73,2722.05 2867.81,2746.57 3014.26,2948.23 2980.87,2958.61 2998.96,3016.51 3002.33,3027.26 3033.18,3049.87 3081.57,3078.93 3109.42,3159.44 2992.79,3187.96 2999.78,3215.54 2946.70,3227.85 2933.50,3230.91 2648.75,2823.59 2641.99,2750.54 2656.63,2739.03 2652.54,2685.69 2628.44,2644.88 2672.37,2619.80 2761.83,2755.63 2799.49,2741.72 2852.73,2722.05"/>
    <poly id="31276235" type="building" color="255,230,230" fill="1" layer="-1.00" shape="2905.16,3084.44 2922.46,3101.65 2917.64,3109.37 2925.54,3117.36 2919.82,3124.78 2938.35,3149.70 2947.11,3145.35 2959.87,3161.96 2965.30,3157.94 2944.31,3123.78 2948.83,3117.90 2931.52,3096.37 2928.20,3099.16 2913.00,3077.31 2905.16,3084.44"/>
    <poly id="31276235#1" type="tourism" color="207,245,201" fill="1" layer="-2.00" shape="2905.16,3084.44 2922.46,3101.65 2917.64,3109.37 2925.54,3117.36 2919.82,3124.78 2938.35,3149.70 2947.11,3145.35 2959.87,3161.96 2965.30,3157.94 2944.31,3123.78 2948.83,3117.90 2931.52,3096.37 2928.20,3099.16 2913.00,3077.31 2905.16,3084.44"/>
    <poly id="355050014" type="building" color="255,230,230" fill="1" layer="-1.00" shape="3214.44,3286.77 3226.01,3282.68 3223.64,3276.06 3212.06,3280.14 3214.44,3286.77"/>
    <poly id="355050019" type="building" color="255,230,230" fill="1" layer="-1.00" shape="3079.42,3389.15 3083.80,3387.48 3080.91,3380.02 3076.53,3381.70 3079.42,3389.15"/>
    <poly id="355050030" type="building" color="255,230,230" fill="1" layer="-1.00" shape="3245.79,3195.88 3256.15,3209.85 3275.46,3195.72 3265.10,3181.74 3245.79,3195.88"/>
    <poly id="355050047" type="building" color="255,230,230" fill="1" layer="-1.00" shape="3312.91,3191.82 3330.07,3181.61 3323.45,3170.64 3306.30,3180.84 3312.91,3191.82"/>
    <poly id="355050050" type="building" color="255,230,230" fill="1" layer="-1.00" shape="3283.47,3287.90 3274.09,3265.05 3263.10,3269.50 3272.47,3292.35 3283.47,3287.90"/>
    <poly id="355050051" type="building" color="255,230,230" fill="1" layer="-1.00" shape="3322.78,3363.24 3336.93,3358.47 3333.50,3348.44 3319.36,3353.21 3322.78,3363.24"/>
    <poly id="355050058" type="building" color="255,230,230" fill="1" layer="-1.00" shape="3206.81,3375.13 3227.76,3368.47 3225.49,3361.43 3204.54,3368.09 3206.81,3375.13"/>
    <poly id="355050081" type="building" color="255,230,230" fill="1" layer="-1.00" shape="3091.85,3279.89 3102.16,3278.05 3100.91,3271.18 3090.60,3273.03 3091.85,3279.89"/>
    <poly id="355050093" type="building" color="255,230,230" fill="1" layer="-1.00" shape="3130.93,3175.71 3136.44,3174.32 3132.92,3160.56 3127.42,3161.95 3130.93,3175.71"/>
    <poly id="355050101" type="building" color="255,230,230" fill="1" layer="-1.00" shape="3284.02,3267.92 3297.43,3261.16 3290.00,3246.61 3276.58,3253.38 3284.02,3267.92"/>
    <poly id="355050104" type="building" color="255,230,230" fill="1" layer="-1.00" shape="3190.10,3253.12 3192.51,3258.82 3201.49,3255.06 3199.10,3249.37 3190.10,3253.12"/>
    <poly id="355050117" type="building" color="255,230,230" fill="1" layer="-1.00" shape="3164.94,3373.78 3170.00,3372.17 3164.16,3354.03 3159.11,3355.64 3164.94,3373.78"/>
    <poly id="355050134" type="building" color="255,230,230" fill="1" layer="-1.00" shape="3237.24,3367.08 3249.02,3363.33 3245.77,3353.26 3233.99,3357.00 3237.24,3367.08"/>
    <poly id="355050144" type="building" color="255,230,230" fill="1" layer="-1.00" shape="2998.76,3285.22 3007.84,3282.83 3003.54,3266.66 2994.46,3269.05 2998.76,3285.22"/>
    <poly id="355050164" type="building" color="255,230,230" fill="1" layer="-1.00" shape="3180.96,3244.65 3183.93,3252.76 3212.32,3242.52 3209.34,3234.40 3180.96,3244.65"/>
    <poly id="355050197" type="building" color="255,230,230" fill="1" layer="-1.00" shape="3172.09,3310.30 3174.79,3319.44 3200.37,3311.97 3197.67,3302.83 3172.09,3310.30"/>
    <poly id="355050220" type="building" color="255,230,230" fill="1" layer="-1.00" shape="3086.05,3384.30 3092.69,3382.28 3091.03,3376.84 3084.38,3378.84 3086.05,3384.30"/>
    <poly id="355050225" type="building" color="255,230,230" fill="1" layer="-1.00" shape="3214.81,3244.10 3224.51,3239.73 3221.40,3232.90 3211.69,3237.27 3214.81,3244.10"/>
    <poly id="355050232" type="building" color="255,230,230" fill="1" layer="-1.00" shape="3222.34,3169.13 3233.32,3184.27 3243.19,3177.20 3232.21,3162.07 3222.34,3169.13"/>
    <poly id="355050245" type="building" color="255,230,230" fill="1" layer="-1.00" shape="3079.51,3361.93 3087.00,3359.55 3085.15,3353.77 3077.65,3356.15 3079.51,3361.93"/>
    <poly id="355050247" type="building" color="255,230,230" fill="1" layer="-1.00" shape="3199.69,3104.40 3214.72,3100.60 3211.22,3086.95 3196.20,3090.74 3199.69,3104.40"/>
    <poly id="355050252" type="building" color="255,230,230" fill="1" layer="-1.00" shape="3282.94,3218.42 3286.32,3224.86 3294.75,3220.50 3291.37,3214.06 3282.94,3218.42"/>
    <poly id="355050259" type="building" color="255,230,230" fill="1" layer="-1.00" shape="3203.76,3366.98 3226.04,3359.89 3223.46,3351.85 3201.18,3358.93 3203.76,3366.98"/>
    <poly id="355050295" type="building" color="255,230,230" fill="1" layer="-1.00" shape="3316.24,3254.76 3326.74,3249.11 3323.36,3242.93 3312.87,3248.57 3316.24,3254.76"/>
    <poly id="355050299" type="building" color="255,230,230" fill="1" layer="-1.00" shape="3189.83,3262.17 3193.23,3269.06 3206.96,3262.38 3203.56,3255.49 3189.83,3262.17"/>
    <poly id="355050310" type="building" color="255,230,230" fill="1" layer="-1.00" shape="3145.65,3380.10 3162.74,3374.67 3156.88,3356.48 3139.80,3361.90 3145.65,3380.10"/>
    <poly id="355050335" type="building" color="255,230,230" fill="1" layer="-1.00" shape="3231.33,3354.16 3243.27,3350.37 3240.58,3342.05 3228.65,3345.85 3231.33,3354.16"/>
    <poly id="355050349" type="building" color="255,230,230" fill="1" layer="-1.00" shape="3169.74,3276.41 3171.75,3282.25 3183.96,3278.08 3181.95,3272.26 3169.74,3276.41"/>
    <poly id="355050382" type="building" color="255,230,230" fill="1" layer="-1.00" shape="3205.92,3222.53 3216.77,3218.26 3212.93,3208.61 3202.07,3212.88 3205.92,3222.53"/>
    <poly id="355050418" type="building" color="255,230,230" fill="1" layer="-1.00" shape="3296.76,3126.59 3299.31,3134.02 3318.18,3127.59 3315.62,3120.17 3296.76,3126.59"/>
    <poly id="355050423" type="building" color="255,230,230" fill="1" layer="-1.00" shape="3216.41,3304.76 3226.41,3299.89 3220.73,3288.38 3210.73,3293.23 3216.41,3304.76"/>
    <poly id="355050426" type="building" color="255,230,230" fill="1" layer="-1.00" shape="3220.37,3410.20 3244.94,3405.19 3243.74,3399.38 3219.18,3404.40 3220.37,3410.20"/>
    <poly id="355050453" type="building" color="255,230,230" fill="1" layer="-1.00" shape="2994.02,3257.52 2997.39,3264.06 3008.90,3258.20 3005.53,3251.65 2994.02,3257.52"/>
    <poly id="355050461" type="building" color="255,230,230" fill="1" layer="-1.00" shape="3260.72,3149.23 3264.96,3147.79 3261.05,3136.47 3256.82,3137.91 3260.72,3149.23"/>
    <poly id="355050472" type="building" color="255,230,230" fill="1" layer="-1.00" shape="3156.00,3175.69 3161.55,3189.92 3178.93,3183.24 3173.38,3169.01 3156.00,3175.69"/>
    <poly id="355050488" type="building" color="255,230,230" fill="1" layer="-1.00" shape="3114.38,3414.73 3121.39,3412.50 3117.77,3401.25 3110.76,3403.48 3114.38,3414.73"/>
    <poly id="355050496" type="building" color="255,230,230" fill="1" layer="-1.00" shape="3247.47,3131.65 3261.37,3128.13 3255.91,3106.80 3242.02,3110.31 3247.47,3131.65"/>
    <poly id="355050505" type="building" color="255,230,230" fill="1" layer="-1.00" shape="3185.11,3345.36 3212.59,3336.62 3207.19,3319.85 3179.71,3328.59 3185.11,3345.36"/>
    <poly id="355050520" type="building" color="255,230,230" fill="1" layer="-1.00" shape="3308.51,3412.77 3325.79,3407.69 3323.31,3399.39 3306.04,3404.47 3308.51,3412.77"/>
    <poly id="355050531" type="building" color="255,230,230" fill="1" layer="-1.00" shape="3275.76,3251.55 3286.53,3245.12 3283.17,3239.56 3272.40,3246.00 3275.76,3251.55"/>
    <poly id="355050533" type="building" color="255,230,230" fill="1" layer="-1.00" shape="3158.79,3264.27 3161.67,3274.63 3182.78,3268.84 3179.90,3258.47 3158.79,3264.27"/>
    <poly id="355050567" type="building" color="255,230,230" fill="1" layer="-1.00" shape="3168.04,3294.40 3170.40,3301.93 3192.90,3294.96 3190.53,3287.44 3168.04,3294.40"/>
    <poly id="355050589" type="building" color="255,230,230" fill="1" layer="-1.00" shape="3188.42,3414.82 3200.43,3412.48 3198.27,3401.54 3186.26,3403.88 3188.42,3414.82"/>
    <poly id="355050607" type="building" color="255,230,230" fill="1" layer="-1.00" shape="3089.54,3399.78 3098.89,3396.82 3095.57,3386.50 3086.22,3389.47 3089.54,3399.78"/>
    <poly id="355050611" type="building" color="255,230,230" fill="1" layer="-1.00" shape="3222.76,3113.68 3236.73,3110.15 3233.45,3097.33 3219.48,3100.86 3222.76,3113.68"/>
    <poly id="355050620" type="building" color="255,230,230" fill="1" layer="-1.00" shape="3283.66,3136.31 3285.69,3142.20 3298.23,3137.94 3296.20,3132.05 3283.66,3136.31"/>
    <poly id="355050623" type="building" color="255,230,230" fill="1" layer="-1.00" shape="3222.84,3417.43 3247.46,3412.29 3246.41,3407.34 3221.79,3412.47 3222.84,3417.43"/>
    <poly id="355050643" type="building" color="255,230,230" fill="1" layer="-1.00" shape="3306.59,3321.74 3310.70,3335.22 3324.78,3330.98 3320.66,3317.50 3306.59,3321.74"/>
    <poly id="355050647" type="building" color="255,230,230" fill="1" layer="-1.00" shape="3183.60,3394.46 3194.94,3390.87 3189.54,3374.13 3178.22,3377.73 3183.60,3394.46"/>
    <poly id="355050663" type="building" color="255,230,230" fill="1" layer="-1.00" shape="3306.71,3219.84 3311.56,3228.36 3323.17,3221.83 3318.33,3213.31 3306.71,3219.84"/>
    <poly id="355050666" type="building" color="255,230,230" fill="1" layer="-1.00" shape="3146.48,3230.89 3167.29,3226.31 3162.37,3204.22 3141.56,3208.80 3146.48,3230.89"/>
    <poly id="355050677" type="building" color="255,230,230" fill="1" layer="-1.00" shape="3124.29,3414.69 3132.71,3412.01 3127.46,3395.69 3119.03,3398.37 3124.29,3414.69"/>
    <poly id="355050683" type="building" color="255,230,230" fill="1" layer="-1.00" shape="3267.67,3124.83 3274.31,3123.15 3268.90,3102.01 3262.26,3103.69 3267.67,3124.83"/>
    <poly id="355050691" type="building" color="255,230,230" fill="1" layer="-1.00" shape="3274.75,3379.03 3284.36,3375.97 3280.85,3365.07 3271.24,3368.14 3274.75,3379.03"/>
    <poly id="355050710" type="building" color="255,230,230" fill="1" layer="-1.00" shape="3266.54,3237.14 3271.04,3244.71 3280.89,3238.93 3276.38,3231.35 3266.54,3237.14"/>
    <poly id="355050730" type="building" color="255,230,230" fill="1" layer="-1.00" shape="3085.52,3322.52 3091.80,3322.06 3091.06,3312.01 3084.78,3312.48 3085.52,3322.52"/>
    <poly id="355050737" type="building" color="255,230,230" fill="1" layer="-1.00" shape="3158.91,3136.42 3167.73,3134.19 3164.32,3120.89 3155.50,3123.12 3158.91,3136.42"/>
    <poly id="355050745" type="building" color="255,230,230" fill="1" layer="-1.00" shape="3293.91,3156.50 3306.90,3152.07 3302.83,3140.28 3289.84,3144.70 3293.91,3156.50"/>
    <poly id="355050748" type="building" color="255,230,230" fill="1" layer="-1.00" shape="3167.46,3315.22 3160.69,3299.97 3154.45,3302.70 3161.23,3317.95 3167.46,3315.22"/>
    <poly id="355050755" type="building" color="255,230,230" fill="1" layer="-1.00" shape="3212.25,3390.69 3236.54,3382.97 3235.18,3378.76 3210.90,3386.49 3212.25,3390.69"/>
    <poly id="355050771" type="building" color="255,230,230" fill="1" layer="-1.00" shape="3095.17,3349.73 3101.25,3349.26 3100.65,3341.52 3094.57,3341.99 3095.17,3349.73"/>
    <poly id="355050791" type="building" color="255,230,230" fill="1" layer="-1.00" shape="3224.05,3230.33 3228.49,3236.32 3239.09,3228.55 3234.64,3222.56 3224.05,3230.33"/>
    <poly id="355050800" type="building" color="255,230,230" fill="1" layer="-1.00" shape="3200.09,3105.98 3203.34,3118.72 3218.68,3114.84 3215.43,3102.10 3200.09,3105.98"/>
    <poly id="355050813" type="building" color="255,230,230" fill="1" layer="-1.00" shape="3212.92,3385.28 3233.98,3378.58 3231.32,3370.29 3210.25,3376.99 3212.92,3385.28"/>
    <poly id="355050823" type="building" color="255,230,230" fill="1" layer="-1.00" shape="3294.23,3376.85 3298.66,3389.31 3320.97,3381.50 3316.56,3369.04 3294.23,3376.85"/>
    <poly id="355050835" type="building" color="255,230,230" fill="1" layer="-1.00" shape="3298.34,3224.91 3303.81,3233.06 3310.25,3228.80 3304.78,3220.64 3298.34,3224.91"/>
    <poly id="355050856" type="building" color="255,230,230" fill="1" layer="-1.00" shape="3161.25,3245.61 3172.88,3241.31 3170.80,3235.74 3159.16,3240.05 3161.25,3245.61"/>
    <poly id="355050901" type="building" color="255,230,230" fill="1" layer="-1.00" shape="3099.22,3334.94 3109.31,3334.37 3108.67,3323.01 3098.57,3323.58 3099.22,3334.94"/>
    <poly id="355050903" type="building" color="255,230,230" fill="1" layer="-1.00" shape="3144.86,3106.72 3147.91,3118.65 3160.70,3115.42 3157.65,3103.49 3144.86,3106.72"/>
    <poly id="355050918" type="building" color="255,230,230" fill="1" layer="-1.00" shape="3215.87,3397.52 3239.83,3389.96 3238.10,3384.54 3214.14,3392.09 3215.87,3397.52"/>
    <poly id="355050928" type="building" color="255,230,230" fill="1" layer="-1.00" shape="3279.41,3361.25 3291.48,3357.41 3288.09,3346.87 3276.02,3350.70 3279.41,3361.25"/>
    <poly id="355050930" type="building" color="255,230,230" fill="1" layer="-1.00" shape="3128.45,3386.14 3139.30,3382.62 3133.09,3363.79 3122.25,3367.31 3128.45,3386.14"/>
    <poly id="355050932" type="building" color="255,230,230" fill="1" layer="-1.00" shape="3285.94,3314.49 3293.54,3312.08 3289.33,3298.98 3281.73,3301.40 3285.94,3314.49"/>
    <poly id="355050941" type="building" color="255,230,230" fill="1" layer="-1.00" shape="3174.16,3220.05 3178.13,3230.11 3196.31,3223.02 3192.34,3212.95 3174.16,3220.05"/>
    <poly id="355050946" type="building" color="255,230,230" fill="1" layer="-1.00" shape="3100.90,3378.54 3111.65,3375.13 3109.77,3369.27 3099.02,3372.68 3100.90,3378.54"/>
    <poly id="355050955" type="amenity" color="237,199,199" fill="1" layer="-1.00" shape="3200.08,3290.94 3208.37,3287.64 3205.29,3280.02 3197.01,3283.32 3200.08,3290.94"/>
    <poly id="355050964" type="building" color="255,230,230" fill="1" layer="-1.00" shape="3304.49,3390.28 3308.47,3400.99 3325.34,3394.81 3321.36,3384.09 3304.49,3390.28"/>
    <poly id="355050971" type="building" color="255,230,230" fill="1" layer="-1.00" shape="3314.36,3246.17 3327.28,3238.74 3320.56,3227.20 3307.64,3234.63 3314.36,3246.17"/>
    <poly id="355050972" type="building" color="255,230,230" fill="1" layer="-1.00" shape="3317.07,3349.39 3330.77,3344.80 3327.29,3334.56 3313.60,3339.15 3317.07,3349.39"/>
    <poly id="355050979" type="building" color="255,230,230" fill="1" layer="-1.00" shape="3090.01,3304.22 3105.68,3302.45 3104.88,3295.41 3089.21,3297.17 3090.01,3304.22"/>
    <poly id="355050980" type="building" color="255,230,230" fill="1" layer="-1.00" shape="3118.56,3109.78 3121.03,3119.44 3138.47,3115.03 3136.01,3105.38 3118.56,3109.78"/>
    <poly id="355051005" type="building" color="255,230,230" fill="1" layer="-1.00" shape="3047.93,3343.69 3054.46,3343.19 3053.51,3330.84 3046.98,3331.34 3047.93,3343.69"/>
    <poly id="355051007" type="building" color="255,230,230" fill="1" layer="-1.00" shape="3094.42,3259.62 3096.16,3269.86 3135.18,3263.34 3132.62,3254.03 3094.42,3259.62"/>
    <poly id="355051008" type="building" color="255,230,230" fill="1" layer="-1.00" shape="3051.77,3300.22 3064.40,3297.37 3062.31,3288.22 3049.68,3291.07 3051.77,3300.22"/>
    <poly id="355051012" type="building" color="255,230,230" fill="1" layer="-1.00" shape="3165.53,3121.19 3175.54,3118.66 3170.76,3099.97 3160.75,3102.50 3165.53,3121.19"/>
    <poly id="355051029" type="building" color="255,230,230" fill="1" layer="-1.00" shape="3218.25,3403.36 3242.78,3396.95 3241.40,3391.73 3216.86,3398.14 3218.25,3403.36"/>
    <poly id="355051033" type="building" color="255,230,230" fill="1" layer="-1.00" shape="3297.28,3357.50 3309.11,3353.73 3305.23,3341.70 3293.40,3345.46 3297.28,3357.50"/>
    <poly id="355051035" type="building" color="255,230,230" fill="1" layer="-1.00" shape="3139.46,3408.40 3151.30,3404.64 3145.83,3387.63 3133.99,3391.39 3139.46,3408.40"/>
    <poly id="355051037" type="building" color="255,230,230" fill="1" layer="-1.00" shape="3287.88,3326.33 3297.56,3323.26 3294.55,3313.94 3284.88,3317.02 3287.88,3326.33"/>
    <poly id="355051046" type="building" color="255,230,230" fill="1" layer="-1.00" shape="3183.40,3193.30 3185.72,3199.90 3199.46,3195.14 3197.13,3188.53 3183.40,3193.30"/>
    <poly id="355051053" type="building" color="255,230,230" fill="1" layer="-1.00" shape="3158.85,3295.35 3169.57,3292.26 3167.25,3284.29 3156.53,3287.37 3158.85,3295.35"/>
    <poly id="355051059" type="building" color="255,230,230" fill="1" layer="-1.00" shape="3285.17,3419.09 3299.01,3414.11 3296.66,3407.65 3282.82,3412.61 3285.17,3419.09"/>
    <poly id="355051063" type="building" color="255,230,230" fill="1" layer="-1.00" shape="3278.06,3230.37 3282.54,3238.79 3297.75,3230.78 3293.26,3222.36 3278.06,3230.37"/>
    <poly id="355051075" type="building" color="255,230,230" fill="1" layer="-1.00" shape="3032.14,3291.43 3039.85,3289.16 3035.50,3274.67 3027.80,3276.96 3032.14,3291.43"/>
    <poly id="355051082" type="building" color="255,230,230" fill="1" layer="-1.00" shape="3074.67,3312.30 3079.76,3312.03 3079.21,3302.29 3074.13,3302.56 3074.67,3312.30"/>
    <poly id="355051085" type="building" color="255,230,230" fill="1" layer="-1.00" shape="3126.11,3127.34 3138.92,3124.11 3137.08,3116.94 3124.27,3120.18 3126.11,3127.34"/>
    <poly id="355051101" type="building" color="255,230,230" fill="1" layer="-1.00" shape="3276.21,3347.05 3288.85,3343.03 3285.46,3332.52 3272.84,3336.53 3276.21,3347.05"/>
    <poly id="355051105" type="building" color="255,230,230" fill="1" layer="-1.00" shape="3224.99,3340.40 3237.85,3336.31 3234.82,3326.86 3221.95,3330.95 3224.99,3340.40"/>
    <poly id="355051117" type="building" color="255,230,230" fill="1" layer="-1.00" shape="3012.29,3329.44 3019.57,3325.42 3012.76,3313.27 3005.48,3317.31 3012.29,3329.44"/>
    <poly id="355051121" type="building" color="255,230,230" fill="1" layer="-1.00" shape="3014.33,3301.22 3008.93,3289.15 2998.70,3293.68 3004.10,3305.75 3014.33,3301.22"/>
    <poly id="355051130" type="building" color="255,230,230" fill="1" layer="-1.00" shape="3052.72,3310.97 3065.96,3308.51 3064.20,3299.19 3050.96,3301.64 3052.72,3310.97"/>
    <poly id="355051133" type="building" color="255,230,230" fill="1" layer="-1.00" shape="3214.71,3141.19 3232.64,3136.66 3228.98,3122.36 3211.05,3126.89 3214.71,3141.19"/>
    <poly id="355051136" type="building" color="255,230,230" fill="1" layer="-1.00" shape="3144.29,3196.13 3147.81,3202.92 3158.71,3197.36 3155.19,3190.56 3144.29,3196.13"/>
    <poly id="355051144" type="building" color="255,230,230" fill="1" layer="-1.00" shape="3295.74,3371.43 3306.78,3367.92 3304.29,3360.17 3293.25,3363.68 3295.74,3371.43"/>
    <poly id="355051145" type="building" color="255,230,230" fill="1" layer="-1.00" shape="3158.75,3403.93 3175.31,3398.66 3169.26,3379.88 3152.71,3385.13 3158.75,3403.93"/>
    <poly id="355051146" type="building" color="255,230,230" fill="1" layer="-1.00" shape="3292.21,3339.39 3301.31,3336.49 3298.03,3326.30 3288.92,3329.19 3292.21,3339.39"/>
    <poly id="355051149" type="building" color="255,230,230" fill="1" layer="-1.00" shape="3257.34,3292.14 3265.84,3289.02 3256.60,3264.18 3248.10,3267.30 3257.34,3292.14"/>
    <poly id="355051156" type="building" color="255,230,230" fill="1" layer="-1.00" shape="3153.00,3296.72 3157.47,3295.40 3153.48,3282.13 3149.02,3283.45 3153.00,3296.72"/>
    <poly id="355051158" type="building" color="255,230,230" fill="1" layer="-1.00" shape="3118.67,3281.39 3127.67,3280.15 3126.37,3270.82 3117.37,3272.06 3118.67,3281.39"/>
    <poly id="355051159" type="building" color="255,230,230" fill="1" layer="-1.00" shape="3234.19,3146.15 3236.48,3152.81 3251.33,3147.75 3249.04,3141.09 3234.19,3146.15"/>
    <poly id="355051165" type="building" color="255,230,230" fill="1" layer="-1.00" shape="3259.51,3225.68 3263.74,3233.25 3272.44,3228.46 3268.22,3220.88 3259.51,3225.68"/>
    <poly id="355051175" type="building" color="255,230,230" fill="1" layer="-1.00" shape="3014.12,3263.14 3021.97,3259.35 3018.91,3253.10 3011.06,3256.88 3014.12,3263.14"/>
    <poly id="355051178" type="building" color="255,230,230" fill="1" layer="-1.00" shape="3063.07,3322.29 3075.40,3320.75 3074.58,3314.24 3062.25,3315.79 3063.07,3322.29"/>
    <poly id="355051181" type="building" color="255,230,230" fill="1" layer="-1.00" shape="3169.70,3133.75 3174.29,3151.69 3184.71,3149.05 3180.13,3131.12 3169.70,3133.75"/>
    <poly id="355051184" type="building" color="255,230,230" fill="1" layer="-1.00" shape="3208.88,3203.11 3217.07,3198.49 3211.49,3188.67 3203.28,3193.28 3208.88,3203.11"/>
    <poly id="355051193" type="building" color="255,230,230" fill="1" layer="-1.00" shape="3259.79,3352.79 3274.38,3348.14 3270.74,3336.84 3256.15,3341.48 3259.79,3352.79"/>
    <poly id="355051195" type="building" color="255,230,230" fill="1" layer="-1.00" shape="3215.38,3331.34 3230.71,3326.45 3227.20,3315.52 3211.86,3320.40 3215.38,3331.34"/>
    <poly id="355051199" type="building" color="255,230,230" fill="1" layer="-1.00" shape="3236.19,3235.57 3237.73,3238.93 3247.08,3234.67 3245.53,3231.31 3236.19,3235.57"/>
    <poly id="355051207" type="building" color="255,230,230" fill="1" layer="-1.00" shape="3195.52,3181.55 3209.66,3176.95 3203.32,3157.67 3189.18,3162.27 3195.52,3181.55"/>
    <poly id="355051215" type="building" color="255,230,230" fill="1" layer="-1.00" shape="3288.11,3393.20 3296.32,3390.59 3292.54,3378.85 3284.33,3381.45 3288.11,3393.20"/>
    <poly id="355051219" type="building" color="255,230,230" fill="1" layer="-1.00" shape="3301.66,3160.12 3309.16,3174.19 3322.80,3167.01 3315.29,3152.94 3301.66,3160.12"/>
    <poly id="355051220" type="building" color="255,230,230" fill="1" layer="-1.00" shape="3245.70,3295.89 3255.42,3292.36 3246.62,3268.38 3236.89,3271.91 3245.70,3295.89"/>
    <poly id="355051229" type="building" color="255,230,230" fill="1" layer="-1.00" shape="3091.59,3290.94 3102.50,3289.10 3100.92,3279.85 3090.00,3281.70 3091.59,3290.94"/>
    <poly id="355051231" type="building" color="255,230,230" fill="1" layer="-1.00" shape="3161.33,3162.36 3168.75,3160.49 3166.34,3151.08 3158.92,3152.96 3161.33,3162.36"/>
    <poly id="355051233" type="building" color="255,230,230" fill="1" layer="-1.00" shape="3289.73,3243.96 3298.22,3260.95 3312.73,3253.80 3304.25,3236.80 3289.73,3243.96"/>
    <poly id="355051236" type="building" color="255,230,230" fill="1" layer="-1.00" shape="3172.51,3370.77 3179.55,3368.53 3173.59,3350.03 3166.55,3352.26 3172.51,3370.77"/>
    <poly id="355051246" type="building" color="255,230,230" fill="1" layer="-1.00" shape="3250.01,3381.67 3265.88,3376.63 3262.55,3366.27 3246.68,3371.33 3250.01,3381.67"/>
    <poly id="355051250" type="building" color="255,230,230" fill="1" layer="-1.00" shape="3024.12,3259.48 3026.88,3266.76 3038.37,3262.47 3035.61,3255.19 3024.12,3259.48"/>
    <poly id="355051257" type="building" color="255,230,230" fill="1" layer="-1.00" shape="3222.15,3225.37 3239.10,3213.76 3234.70,3207.42 3217.75,3219.02 3222.15,3225.37"/>
    <poly id="355051267" type="building" color="255,230,230" fill="1" layer="-1.00" shape="3264.99,3367.84 3278.63,3363.49 3274.95,3352.02 3261.30,3356.37 3264.99,3367.84"/>
    <poly id="355051268" type="building" color="255,230,230" fill="1" layer="-1.00" shape="3252.30,3340.31 3272.62,3333.85 3264.07,3307.30 3243.76,3313.76 3252.30,3340.31"/>
    <poly id="355051272" type="building" color="255,230,230" fill="1" layer="-1.00" shape="3316.88,3151.69 3331.80,3146.60 3328.32,3136.52 3313.39,3141.59 3316.88,3151.69"/>
    <poly id="355051273" type="building" color="255,230,230" fill="1" layer="-1.00" shape="3172.28,3302.27 3174.39,3308.87 3196.03,3302.04 3193.92,3295.46 3172.28,3302.27"/>
    <poly id="355101566" type="building" color="255,230,230" fill="1" layer="-1.00" shape="2416.51,3125.92 2432.38,3126.43 2432.90,3110.97 2417.02,3110.46 2416.51,3125.92"/>
    <poly id="355101567" type="building" color="255,230,230" fill="1" layer="-1.00" shape="2340.76,3329.37 2343.03,3337.92 2362.62,3332.78 2360.34,3324.23 2340.76,3329.37"/>
    <poly id="355101569" type="building" color="255,230,230" fill="1" layer="-1.00" shape="2591.54,3367.32 2605.60,3364.03 2600.95,3344.44 2586.89,3347.73 2591.54,3367.32"/>
    <poly id="355101571" type="building" color="255,230,230" fill="1" layer="-1.00" shape="2277.53,3325.79 2280.02,3334.27 2292.38,3330.66 2289.89,3322.20 2277.53,3325.79"/>
    <poly id="355101573" type="building" color="255,230,230" fill="1" layer="-1.00" shape="2363.73,3146.29 2376.90,3144.20 2375.22,3133.69 2362.05,3135.79 2363.73,3146.29"/>
    <poly id="355101574" type="building" color="255,230,230" fill="1" layer="-1.00" shape="2471.43,3360.58 2473.38,3368.77 2487.24,3365.53 2485.30,3357.34 2471.43,3360.58"/>
    <poly id="355101576" type="building" color="255,230,230" fill="1" layer="-1.00" shape="2593.31,3216.94 2608.53,3205.85 2604.47,3200.35 2589.24,3211.44 2593.31,3216.94"/>
    <poly id="355101582" type="building" color="255,230,230" fill="1" layer="-1.00" shape="2365.24,3320.97 2378.27,3317.55 2375.37,3306.66 2362.35,3310.09 2365.24,3320.97"/>
    <poly id="355101583" type="building" color="255,230,230" fill="1" layer="-1.00" shape="2462.00,3111.66 2470.29,3108.81 2467.63,3101.14 2459.34,3103.99 2462.00,3111.66"/>
    <poly id="355101586" type="building" color="255,230,230" fill="1" layer="-1.00" shape="2630.88,3271.85 2639.39,3284.43 2646.36,3279.79 2637.85,3267.21 2630.88,3271.85"/>
    <poly id="355101589" type="building" color="255,230,230" fill="1" layer="-1.00" shape="2505.32,3371.75 2507.26,3379.70 2521.92,3376.13 2519.96,3368.18 2505.32,3371.75"/>
    <poly id="355101590" type="building" color="255,230,230" fill="1" layer="-1.00" shape="2561.03,3374.85 2573.49,3369.63 2570.26,3361.98 2557.79,3367.19 2561.03,3374.85"/>
    <poly id="355101591" type="building" color="255,230,230" fill="1" layer="-1.00" shape="2387.22,3185.46 2390.28,3192.69 2401.19,3188.13 2398.13,3180.90 2387.22,3185.46"/>
    <poly id="355101595" type="building" color="255,230,230" fill="1" layer="-1.00" shape="2468.65,3178.28 2480.38,3176.48 2475.84,3147.22 2464.11,3149.02 2468.65,3178.28"/>
    <poly id="355101597" type="building" color="255,230,230" fill="1" layer="-1.00" shape="2473.52,3108.50 2480.79,3106.26 2478.14,3097.73 2470.87,3099.97 2473.52,3108.50"/>
    <poly id="355101599" type="building" color="255,230,230" fill="1" layer="-1.00" shape="2345.92,3206.99 2359.45,3205.14 2358.21,3196.11 2344.67,3197.95 2345.92,3206.99"/>
    <poly id="355101600" type="building" color="255,230,230" fill="1" layer="-1.00" shape="2588.63,3327.41 2592.58,3342.31 2613.44,3336.85 2609.49,3321.93 2588.63,3327.41"/>
    <poly id="355101602" type="building" color="255,230,230" fill="1" layer="-1.00" shape="2597.65,3395.42 2608.31,3392.88 2605.79,3382.43 2595.13,3384.96 2597.65,3395.42"/>
    <poly id="355101608" type="building" color="255,230,230" fill="1" layer="-1.00" shape="2361.61,3124.87 2362.73,3132.18 2392.65,3127.65 2391.53,3120.35 2361.61,3124.87"/>
    <poly id="355101611" type="building" color="255,230,230" fill="1" layer="-1.00" shape="2257.08,3135.38 2272.29,3131.72 2268.31,3115.30 2253.08,3118.96 2257.08,3135.38"/>