    <vehicle id="AC_0" type="typeAB" route="AC" depart="2" color="0,1,0" />
    <vehicle id="BC_1" type="typeAB" route="BC" depart="4" />
    <vehicle id="AC_2" type="typeAB" route="AC" depart="7" color="0,1,0" />
    <vehicle id="CA_3" type="typeAB" route="CA" depart="7" />
    <vehicle id="CA_4" type="typeAB" route="CA" depart="8" />
    <vehicle id="BA_5" type="typeAB" route="BA" depart="13" />
    <vehicle id="CA_6" type="typeAB" route="CA" depart="15" />
    <vehicle id="CA_7" type="typeAB" route="CA" depart="16" />
    <vehicle id="BA_8" type="typeAB" route="BA" depart="24" />
    <vehicle id="AB_9" type="typeAB" route="AB" depart="27" color="1,0,0" />
    <vehicle id="CA_10" type="typeAB" route="CA" depart="27" />
    <vehicle id="AC_11" type="typeAB" route="AC" depart="28" color="0,1,0" />
    <vehicle id="AB_12" type="typeAB" route="AB" depart="29" color="1,0,0" />
    <vehicle id="AB_13" type="typeAB" route="AB" depart="31" color="1,0,0" />
    <vehicle id="AB_14" type="typeAB" route="AB" depart="38" color="1,0,0" />
    <vehicle id="CA_15" type="typeAB" route="CA" depart="39" />
    <vehicle id="CA_16" type="typeAB" route="CA" depart="46" />
    <vehicle id="BC_17" type="typeAB" route="BC" depart="47" />
    <vehicle id="AC_18" type="typeAB" route="AC" depart="59" color="0,1,0" />
    <vehicle id="AB_19" type="typeAB" route="AB" depart="70" color="1,0,0" />
    <vehicle id="AB_20" type="typeAB" route="AB" depart="71" color="1,0,0" />
    <vehicle id="AC_21" type="typeAB" route="AC" depart="71" color="0,1,0" />
    <vehicle id="BA_22" type="typeAB" route="BA" depart="71" />
    <vehicle id="AB_23" type="typeAB" route="AB" depart="75" color="1,0,0" />
    <vehicle id="BC_24" type="typeAB" route="BC" depart="83" />
    <vehicle id="BA_25" type="typeAB" route="BA" depart="85" />
    <vehicle id="AC_26" type="typeAB" route="AC" depart="88" color="0,1,0" />
    <vehicle id="BA_27" type="typeAB" route="BA" depart="91" />
    <vehicle id="CA_28" type="typeAB" route="CA" depart="92" />
    <vehicle id="AC_29" type="typeAB" route="AC" depart="93" color="0,1,0" />
    <vehicle id="AB_30" type="typeAB" route="AB" depart="102" color="1,0,0" />
    <vehicle id="AB_31" type="typeAB" route="AB" depart="107" color="1,0,0" />
    <vehicle id="AC_32" type="typeAB" route="AC" depart="111" color="0,1,0" />
    <vehicle id="AB_33" type="typeAB" route="AB" depart="114" color="1,0,0" />
    <vehicle id="AB_34" type="typeAB" route="AB" depart="118" color="1,0,0" />
    <vehicle id="AC_35" type="typeAB" route="AC" depart="123" color="0,1,0" />
    <vehicle id="AC_36" type="typeAB" route="AC" depart="129" color="0,1,0" />
    <vehicle id="CA_37" type="typeAB" route="CA" depart="131" />
    <vehicle id="CB_38" type="typeAB" route="CB" depart="135" />
    <vehicle id="AB_39" type="typeAB" route="AB" depart="139" color="1,0,0" />
    <vehicle id="AB_40" type="typeAB" route="AB" depart="148" color="1,0,0" />
    <vehicle id="AB_41" type="typeAB" route="AB" depart="149" color="1,0,0" />
    <vehicle id="BA_42" type="typeAB" route="BA" depart="150" />
    <vehicle id="CB_43" type="typeAB" route="CB" depart="151" />
    <vehicle id="AB_44" type="typeAB" route="AB" depart="153" color="1,0,0" />
    <vehicle id="AC_45" type="typeAB" route="AC" depart="154" color="0,1,0" />
    <vehicle id="BA_46" type="typeAB" route="BA" depart="158" />
    <vehicle id="AC_47" type="typeAB" route="AC" depart="159" color="0,1,0" />
    <vehicle id="CB_48" type="typeAB" route="CB" depart="160" />
    <vehicle id="AC_49" type="typeAB" route="AC" depart="162" color="0,1,0" />
    <vehicle id="BA_50" type="typeAB" route="BA" depart="162" />
    <vehicle id="BA_51" type="typeAB" route="BA" depart="165" />
    <vehicle id="AB_52" type="typeAB" route="AB" depart="172" color="1,0,0" />
    <vehicle id="BA_53" type="typeAB" route="BA" depart="172" />
    <vehicle id="AB_54" type="typeAB" route="AB" depart="174" color="1,0,0" />
    <vehicle id="BC_55" type="typeAB" route="BC" depart="181" />
    <vehicle id="AB_56" type="typeAB" route="AB" depart="184" color="1,0,0" />
    <vehicle id="BC_57" type="typeAB" route="BC" depart="190" />
    <vehicle id="CA_58" type="typeAB" route="CA" depart="193" />
    <vehicle id="BA_59" type="typeAB" route="BA" depart="195" />
    <vehicle id="AC_60" type="typeAB" route="AC" depart="199" color="0,1,0" />
    <vehicle id="AB_61" type="typeAB" route="AB" depart="200" color="1,0,0" />
    <vehicle id="BC_62" type="typeAB" route="BC" depart="215" />
    <vehicle id="AB_63" type="typeAB" route="AB" depart="220" color="1,0,0" />
    <vehicle id="CA_64" type="typeAB" route="CA" depart="221" />
    <vehicle id="AC_65" type="typeAB" route="AC" depart="223" color="0,1,0" />
    <vehicle id="BC_66" type="typeAB" route="BC" depart="231" />
    <vehicle id="AC_67" type="typeAB" route="AC" depart="240" color="0,1,0" />
    <vehicle id="CA_68" type="typeAB" route="CA" depart="243" />
    <vehicle id="AB_69" type="typeAB" route="AB" depart="245" color="1,0,0" />
    <vehicle id="AB_70" type="typeAB" route="AB" depart="252" color="1,0,0" />
    <vehicle id="AC_71" type="typeAB" route="AC" depart="253" color="0,1,0" />
    <vehicle id="BA_72" type="typeAB" route="BA" depart="255" />
    <vehicle id="CB_73" type="typeAB" route="CB" depart="256" />
    <vehicle id="AB_74" type="typeAB" route="AB" depart="260" color="1,0,0" />
    <vehicle id="AB_75" type="typeAB" route="AB" depart="266" color="1,0,0" />
    <vehicle id="CA_76" type="typeAB" route="CA" depart="266" />
    <vehicle id="AB_77" type="typeAB" route="AB" depart="271" color="1,0,0" />
    <vehicle id="AB_78" type="typeAB" route="AB" depart="274" color="1,0,0" />
    <vehicle id="AC_79" type="typeAB" route="AC" depart="275" color="0,1,0" />
    <vehicle id="CA_80" type="typeAB" route="CA" depart="275" />
    <vehicle id="AC_81" type="typeAB" route="AC" depart="277" color="0,1,0" />
    <vehicle id="BA_82" type="typeAB" route="BA" depart="280" />
    <vehicle id="AB_83" type="typeAB" route="AB" depart="286" color="1,0,0" />
    <vehicle id="CA_84" type="typeAB" route="CA" depart="287" />
    <vehicle id="AB_85" type="typeAB" route="AB" depart="288" color="1,0,0" />
    <vehicle id="CA_86" type="typeAB" route="CA" depart="289" />
    <vehicle id="CB_87" type="typeAB" route="CB" depart="295" />
    <vehicle id="AB_88" type="typeAB" route="AB" depart="296" color="1,0,0" />
    <vehicle id="AC_89" type="typeAB" route="AC" depart="297" color="0,1,0" />
    <vehicle id="AC_90" type="typeAB" route="AC" depart="298" color="0,1,0" />
    <vehicle id="AB_91" type="typeAB" route="AB" depart="302" color="1,0,0" />
    <vehicle id="AC_92" type="typeAB" route="AC" depart="306" color="0,1,0" />
    <vehicle id="AB_93" type="typeAB" route="AB" depart="308" color="1,0,0" />
    <vehicle id="AC_94" type="typeAB" route="AC" depart="308" color="0,1,0" />
    <vehicle id="AB_95" type="typeAB" route="AB" depart="312" color="1,0,0" />
    <vehicle id="AC_96" type="typeAB" route="AC" depart="313" color="0,1,0" />
    <vehicle id="AB_97" type="typeAB" route="AB" depart="314" color="1,0,0" />
    <vehicle id="AB_98" type="typeAB" route="AB" depart="324" color="1,0,0" />
    <vehicle id="AB_99" type="typeAB" route="AB" depart="325" color="1,0,0" />
    <vehicle id="CB_100" type="typeAB" route="CB" depart="326" />
    <vehicle id="AB_101" type="typeAB" route="AB" depart="336" color="1,0,0" />
    <vehicle id="CB_102" type="typeAB" route="CB" depart="337" />
    <vehicle id="BA_103" type="typeAB" route="BA" depart="338" />
    <vehicle id="BA_104" type="typeAB" route="BA" depart="348" />
    <vehicle id="BA_105" type="typeAB" route="BA" depart="349" />
    <vehicle id="AB_106" type="typeAB" route="AB" depart="350" color="1,0,0" />
    <vehicle id="CA_107" type="typeAB" route="CA" depart="353" />
    <vehicle id="BA_108" type="typeAB" route="BA" depart="358" />
    <vehicle id="BC_109" type="typeAB" route="BC" depart="360" />
    <vehicle id="CB_110" type="typeAB" route="CB" depart="361" />
    <vehicle id="AB_111" type="typeAB" route="AB" depart="366" color="1,0,0" />
    <vehicle id="BA_112" type="typeAB" route="BA" depart="368" />
    <vehicle id="AC_113" type="typeAB" route="AC" depart="370" color="0,1,0" />
    <vehicle id="AB_114" type="typeAB" route="AB" depart="373" color="1,0,0" />
    <vehicle id="AB_115" type="typeAB" route="AB" depart="377" color="1,0,0" />
    <vehicle id="AC_116" type="typeAB" route="AC" depart="378" color="0,1,0" />
    <vehicle id="BA_117" type="typeAB" route="BA" depart="379" />
    <vehicle id="AB_118" type="typeAB" route="AB" depart="380" color="1,0,0" />
    <vehicle id="AB_119" type="typeAB" route="AB" depart="385" color="1,0,0" />
    <vehicle id="AB_120" type="typeAB" route="AB" depart="386" color="1,0,0" />
    <vehicle id="CB_121" type="typeAB" route="CB" depart="388" />
    <vehicle id="AB_122" type="typeAB" route="AB" depart="393" color="1,0,0" />
    <vehicle id="AB_123" type="typeAB" route="AB" depart="400" color="1,0,0" />
    <vehicle id="CB_124" type="typeAB" route="CB" depart="400" />
    <vehicle id="AC_125" type="typeAB" route="AC" depart="401" color="0,1,0" />
    <vehicle id="CA_126" type="typeAB" route="CA" depart="413" />
    <vehicle id="CA_127" type="typeAB" route="CA" depart="421" />
    <vehicle id="BC_128" type="typeAB" route="BC" depart="422" />
    <vehicle id="BC_129" type="typeAB" route="BC" depart="428" />
    <vehicle id="AB_130" type="typeAB" route="AB" depart="430" color="1,0,0" />
    <vehicle id="AC_131" type="typeAB" route="AC" depart="439" color="0,1,0" />
    <vehicle id="BA_132" type="typeAB" route="BA" depart="439" />
    <vehicle id="CB_133" type="typeAB" route="CB" depart="439" />
    <vehicle id="AC_134" type="typeAB" route="AC" depart="442" color="0,1,0" />
    <vehicle id="BA_135" type="typeAB" route="BA" depart="445" />
    <vehicle id="BA_136" type="typeAB" route="BA" depart="449" />
    <vehicle id="CA_137" type="typeAB" route="CA" depart="449" />
    <vehicle id="AC_138" type="typeAB" route="AC" depart="454" color="0,1,0" />
    <vehicle id="CA_139" type="typeAB" route="CA" depart="458" />
    <vehicle id="BC_140" type="typeAB" route="BC" depart="463" />
    <vehicle id="CA_141" type="typeAB" route="CA" depart="463" />
    <vehicle id="BC_142" type="typeAB" route="BC" depart="464" />
    <vehicle id="BA_143" type="typeAB" route="BA" depart="466" />
    <vehicle id="AB_144" type="typeAB" route="AB" depart="468" color="1,0,0" />
    <vehicle id="BC_145" type="typeAB" route="BC" depart="468" />
    <vehicle id="AB_146" type="typeAB" route="AB" depart="473" color="1,0,0" />
    <vehicle id="AB_147" type="typeAB" route="AB" depart="475" color="1,0,0" />
    <vehicle id="AB_148" type="typeAB" route="AB" depart="478" color="1,0,0" />
    <vehicle id="BA_149" type="typeAB" route="BA" depart="478" />
    <vehicle id="AC_150" type="typeAB" route="AC" depart="487" color="0,1,0" />
    <vehicle id="AB_151" type="typeAB" route="AB" depart="489" color="1,0,0" />
    <vehicle id="AC_152" type="typeAB" route="AC" depart="489" color="0,1,0" />
    <vehicle id="BC_153" type="typeAB" route="BC" depart="491" />
    <vehicle id="AB_154" type="typeAB" route="AB" depart="499" color="1,0,0" />
    <vehicle id="AC_155" type="typeAB" route="AC" depart="504" color="0,1,0" />
    <vehicle id="CA_156" type="typeAB" route="CA" depart="508" />
    <vehicle id="AC_157" type="typeAB" route="AC" depart="510" color="0,1,0" />
    <vehicle id="AC_158" type="typeAB" route="AC" depart="516" color="0,1,0" />
    <vehicle id="AB_159" type="typeAB" route="AB" depart="527" color="1,0,0" />
    <vehicle id="AC_160" type="typeAB" route="AC" depart="531" color="0,1,0" />
    <vehicle id="BA_161" type="typeAB" route="BA" depart="531" />
    <vehicle id="AB_162" type="typeAB" route="AB" depart="538" color="1,0,0" />
    <vehicle id="BA_163" type="typeAB" route="BA" depart="542" />
    <vehicle id="AC_164" type="typeAB" route="AC" depart="543" color="0,1,0" />
    <vehicle id="BC_165" type="typeAB" route="BC" depart="545" />
    <vehicle id="AB_166" type="typeAB" route="AB" depart="550" color="1,0,0" />
    <vehicle id="BC_167" type="typeAB" route="BC" depart="552" />
    <vehicle id="AC_168" type="typeAB" route="AC" depart="554" color="0,1,0" />
    <vehicle id="CB_169" type="typeAB" route="CB" depart="554" />
    <vehicle id="AB_170" type="typeAB" route="AB" depart="555" color="1,0,0" />
    <vehicle id="AB_171" type="typeAB" route="AB" depart="556" color="1,0,0" />
    <vehicle id="AC_172" type="typeAB" route="AC" depart="557" color="0,1,0" />
    <vehicle id="BA_173" type="typeAB" route="BA" depart="558" />
    <vehicle id="BC_174" type="typeAB" route="BC" depart="560" />
    <vehicle id="CA_175" type="typeAB" route="CA" depart="562" />
    <vehicle id="AC_176" type="typeAB" route="AC" depart="563" color="0,1,0" />
    <vehicle id="CB_177" type="typeAB" route="CB" depart="563" />
    <vehicle id="AC_178" type="typeAB" route="AC" depart="577" color="0,1,0" />
    <vehicle id="AC_179" type="typeAB" route="AC" depart="579" color="0,1,0" />
    <vehicle id="BA_180" type="typeAB" route="BA" depart="581" />
    <vehicle id="AB_181" type="typeAB" route="AB" depart="583" color="1,0,0" />
    <vehicle id="BA_182" type="typeAB" route="BA" depart="583" />
    <vehicle id="BC_183" type="typeAB" route="BC" depart="583" />
    <vehicle id="AB_184" type="typeAB" route="AB" depart="586" color="1,0,0" />
    <vehicle id="CA_185" type="typeAB" route="CA" depart="588" />
    <vehicle id="BC_186" type="typeAB" route="BC" depart="591" />
    <vehicle id="BA_187" type="typeAB" route="BA" depart="593" />
    <vehicle id="AC_188" type="typeAB" route="AC" depart="594" color="0,1,0" />
    <vehicle id="CB_189" type="typeAB" route="CB" depart="594" />
    <vehicle id="AC_190" type="typeAB" route="AC" depart="599" color="0,1,0" />
    <vehicle id="AB_191" type="typeAB" route="AB" depart="600" color="1,0,0" />
    <vehicle id="BA_192" type="typeAB" route="BA" depart="604" />
    <vehicle id="AB_193" type="typeAB" route="AB" depart="607" color="1,0,0" />
    <vehicle id="AB_194" type="typeAB" route="AB" depart="609" color="1,0,0" />
    <vehicle id="CA_195" type="typeAB" route="CA" depart="615" />
    <vehicle id="AB_196" type="typeAB" route="AB" depart="624" color="1,0,0" />
    <vehicle id="BA_197" type="typeAB" route="BA" depart="624" />
    <vehicle id="CB_198" type="typeAB" route="CB" depart="624" />
    <vehicle id="BC_199" type="typeAB" route="BC" depart="625" />
    <vehicle id="AC_200" type="typeAB" route="AC" depart="626" color="0,1,0" />
    <vehicle id="BA_201" type="typeAB" route="BA" depart="627" />
    <vehicle id="AB_202" type="typeAB" route="AB" depart="635" color="1,0,0" />
    <vehicle id="AC_203" type="typeAB" route="AC" depart="635" color="0,1,0" />
    <vehicle id="AB_204" type="typeAB" route="AB" depart="641" color="1,0,0" />
    <vehicle id="AC_205" type="typeAB" route="AC" depart="648" color="0,1,0" />
    <vehicle id="CA_206" type="typeAB" route="CA" depart="648" />
    <vehicle id="AC_207" type="typeAB" route="AC" depart="649" color="0,1,0" />
    <vehicle id="AB_208" type="typeAB" route="AB" depart="651" color="1,0,0" />
    <vehicle id="AB_209" type="typeAB" route="AB" depart="653" color="1,0,0" />
    <vehicle id="AC_210" type="typeAB" route="AC" depart="659" color="0,1,0" />
    <vehicle id="AB_211" type="typeAB" route="AB" depart="665" color="1,0,0" />
    <vehicle id="AB_212" type="typeAB" route="AB" depart="667" color="1,0,0" />
    <vehicle id="AC_213" type="typeAB" route="AC" depart="670" color="0,1,0" />
    <vehicle id="BA_214" type="typeAB" route="BA" depart="670" />
    <vehicle id="AC_215" type="typeAB" route="AC" depart="676" color="0,1,0" />
    <vehicle id="AC_216" type="typeAB" route="AC" depart="680" color="0,1,0" />
    <vehicle id="CA_217" type="typeAB" route="CA" depart="680" />
    <vehicle id="AC_218" type="typeAB" route="AC" depart="683" color="0,1,0" />
    <vehicle id="AC_219" type="typeAB" route="AC" depart="684" color="0,1,0" />
    <vehicle id="AC_220" type="typeAB" route="AC" depart="685" color="0,1,0" />
    <vehicle id="CA_221" type="typeAB" route="CA" depart="685" />
    <vehicle id="AB_222" type="typeAB" route="AB" depart="692" color="1,0,0" />
    <vehicle id="AC_223" type="typeAB" route="AC" depart="692" color="0,1,0" />
    <vehicle id="AB_224" type="typeAB" route="AB" depart="700" color="1,0,0" />
    <vehicle id="AC_225" type="typeAB" route="AC" depart="703" color="0,1,0" />
    <vehicle id="AB_226" type="typeAB" route="AB" depart="706" color="1,0,0" />
    <vehicle id="BC_227" type="typeAB" route="BC" depart="706" />
    <vehicle id="AC_228" type="typeAB" route="AC" depart="709" color="0,1,0" />
    <vehicle id="BC_229" type="typeAB" route="BC" depart="709" />
    <vehicle id="AC_230" type="typeAB" route="AC" depart="712" color="0,1,0" />
    <vehicle id="AB_231" type="typeAB" route="AB" depart="721" color="1,0,0" />
    <vehicle id="CA_232" type="typeAB" route="CA" depart="731" />
    <vehicle id="AC_233" type="typeAB" route="AC" depart="732" color="0,1,0" />
    <vehicle id="AB_234" type="typeAB" route="AB" depart="733" color="1,0,0" />
    <vehicle id="BA_235" type="typeAB" route="BA" depart="733" />
    <vehicle id="AC_236" type="typeAB" route="AC" depart="738" color="0,1,0" />
    <vehicle id="AB_237" type="typeAB" route="AB" depart="752" color="1,0,0" />
    <vehicle id="AB_238" type="typeAB" route="AB" depart="753" color="1,0,0" />
    <vehicle id="CA_239" type="typeAB" route="CA" depart="760" />
    <vehicle id="AB_240" type="typeAB" route="AB" depart="763" color="1,0,0" />
    <vehicle id="CB_241" type="typeAB" route="CB" depart="763" />
    <vehicle id="AC_242" type="typeAB" route="AC" depart="765" color="0,1,0" />
    <vehicle id="BA_243" type="typeAB" route="BA" depart="771" />
    <vehicle id="AB_244" type="typeAB" route="AB" depart="775" color="1,0,0" />
    <vehicle id="CA_245" type="typeAB" route="CA" depart="779" />
    <vehicle id="BA_246" type="typeAB" route="BA" depart="780" />
    <vehicle id="BA_247" type="typeAB" route="BA" depart="781" />
    <vehicle id="AB_248" type="typeAB" route="AB" depart="786" color="1,0,0" />
    <vehicle id="AB_249" type="typeAB" route="AB" depart="789" color="1,0,0" />
    <vehicle id="AC_250" type="typeAB" route="AC" depart="789" color="0,1,0" />
    <vehicle id="CA_251" type="typeAB" route="CA" depart="795" />
    <vehicle id="AC_252" type="typeAB" route="AC" depart="799" color="0,1,0" />
    <vehicle id="CA_253" type="typeAB" route="CA" depart="800" />
    <vehicle id="AC_254" type="typeAB" route="AC" depart="803" color="0,1,0" />
    <vehicle id="AB_255" type="typeAB" route="AB" depart="804" color="1,0,0" />
    <vehicle id="AC_256" type="typeAB" route="AC" depart="806" color="0,1,0" />
    <vehicle id="AC_257" type="typeAB" route="AC" depart="813" color="0,1,0" />
    <vehicle id="CB_258" type="typeAB" route="CB" depart="814" />
    <vehicle id="AC_259" type="typeAB" route="AC" depart="819" color="0,1,0" />
    <vehicle id="CA_260" type="typeAB" route="CA" depart="819" />
    <vehicle id="AB_261" type="typeAB" route="AB" depart="821" color="1,0,0" />
    <vehicle id="AC_262" type="typeAB" route="AC" depart="824" color="0,1,0" />
    <vehicle id="AC_263" type="typeAB" route="AC" depart="825" color="0,1,0" />
    <vehicle id="CA_264" type="typeAB" route="CA" depart="827" />
    <vehicle id="AB_265" type="typeAB" route="AB" depart="829" color="1,0,0" />
    <vehicle id="BA_266" type="typeAB" route="BA" depart="830" />
    <vehicle id="AB_267" type="typeAB" route="AB" depart="838" color="1,0,0" />
    <vehicle id="BA_268" type="typeAB" route="BA" depart="842" />
    <vehicle id="AB_269" type="typeAB" route="AB" depart="843" color="1,0,0" />
    <vehicle id="AB_270" type="typeAB" route="AB" depart="844" color="1,0,0" />
    <vehicle id="CA_271" type="typeAB" route="CA" depart="846" />
    <vehicle id="CB_272" type="typeAB" route="CB" depart="846" />
    <vehicle id="AC_273" type="typeAB" route="AC" depart="850" color="0,1,0" />
    <vehicle id="AB_274" type="typeAB" route="AB" depart="852" color="1,0,0" />
    <vehicle id="AB_275" type="typeAB" route="AB" depart="856" color="1,0,0" />
    <vehicle id="BC_276" type="typeAB" route="BC" depart="859" />
    <vehicle id="CB_277" type="typeAB" route="CB" depart="863" />
    <vehicle id="AB_278" type="typeAB" route="AB" depart="866" color="1,0,0" />
    <vehicle id="BA_279" type="typeAB" route="BA" depart="873" />
    <vehicle id="BC_280" type="typeAB" route="BC" depart="875" />
    <vehicle id="BA_281" type="typeAB" route="BA" depart="877" />
    <vehicle id="AB_282" type="typeAB" route="AB" depart="880" color="1,0,0" />
    <vehicle id="CA_283" type="typeAB" route="CA" depart="880" />
    <vehicle id="BA_284" type="typeAB" route="BA" depart="881" />
    <vehicle id="AC_285" type="typeAB" route="AC" depart="884" color="0,1,0" />
    <vehicle id="AC_286" type="typeAB" route="AC" depart="893" color="0,1,0" />
    <vehicle id="CA_287" type="typeAB" route="CA" depart="896" />
    <vehicle id="AB_288" type="typeAB" route="AB" depart="897" color="1,0,0" />
    <vehicle id="AC_289" type="typeAB" route="AC" depart="897" color="0,1,0" />
    <vehicle id="AB_290" type="typeAB" route="AB" depart="900" color="1,0,0" />
    <vehicle id="BC_291" type="typeAB" route="BC" depart="903" />
    <vehicle id="BC_292" type="typeAB" route="BC" depart="911" />
    <vehicle id="BA_293" type="typeAB" route="BA" depart="913" />
    <vehicle id="AC_294" type="typeAB" route="AC" depart="936" color="0,1,0" />
    <vehicle id="BA_295" type="typeAB" route="BA" depart="938" />
    <vehicle id="BC_296" type="typeAB" route="BC" depart="939" />
    <vehicle id="AB_297" type="typeAB" route="AB" depart="940" color="1,0,0" />
    <vehicle id="AB_298" type="typeAB" route="AB" depart="947" color="1,0,0" />
    <vehicle id="AB_299" type="typeAB" route="AB" depart="950" color="1,0,0" />
    <vehicle id="BC_300" type="typeAB" route="BC" depart="955" />
    <vehicle id="AC_301" type="typeAB" route="AC" depart="957" color="0,1,0" />
    <vehicle id="AC_302" type="typeAB" route="AC" depart="964" color="0,1,0" />
    <vehicle id="AB_303" type="typeAB" route="AB" depart="966" color="1,0,0" />
    <vehicle id="AC_304" type="typeAB" route="AC" depart="966" color="0,1,0" />
    <vehicle id="BA_305" type="typeAB" route="BA" depart="973" />
    <vehicle id="BA_306" type="typeAB" route="BA" depart="991" />
    <vehicle id="CB_307" type="typeAB" route="CB" depart="999" />
    <vehicle id="BC_308" type="typeAB" route="BC" depart="1000" />
    <vehicle id="AB_309" type="typeAB" route="AB" depart="1001" color="1,0,0" />
    <vehicle id="AB_310" type="typeAB" route="AB" depart="1002" color="1,0,0" />
    <vehicle id="CA_311" type="typeAB" route="CA" depart="1009" />
    <vehicle id="BC_312" type="typeAB" route="BC" depart="1011" />
    <vehicle id="CB_313" type="typeAB" route="CB" depart="1011" />
    <vehicle id="BC_314" type="typeAB" route="BC" depart="1012" />
    <vehicle id="CA_315" type="typeAB" route="CA" depart="1012" />
    <vehicle id="BC_316" type="typeAB" route="BC" depart="1014" />
    <vehicle id="CB_317" type="typeAB" route="CB" depart="1014" />
    <vehicle id="AB_318" type="typeAB" route="AB" depart="1016" color="1,0,0" />
    <vehicle id="CA_319" type="typeAB" route="CA" depart="1017" />
    <vehicle id="AB_320" type="typeAB" route="AB" depart="1018" color="1,0,0" />
    <vehicle id="AC_321" type="typeAB" route="AC" depart="1028" color="0,1,0" />
    <vehicle id="AC_322" type="typeAB" route="AC" depart="1030" color="0,1,0" />
    <vehicle id="AB_323" type="typeAB" route="AB" depart="1036" color="1,0,0" />
    <vehicle id="BC_324" type="typeAB" route="BC" depart="1037" />
    <vehicle id="AB_325" type="typeAB" route="AB" depart="1039" color="1,0,0" />
    <vehicle id="AB_326" type="typeAB" route="AB" depart="1046" color="1,0,0" />
    <vehicle id="AB_327" type="typeAB" route="AB" depart="1048" color="1,0,0" />
    <vehicle id="AC_328" type="typeAB" route="AC" depart="1049" color="0,1,0" />
    <vehicle id="AB_329" type="typeAB" route="AB" depart="1051" color="1,0,0" />
    <vehicle id="BA_330" type="typeAB" route="BA" depart="1055" />
    <vehicle id="CA_331" type="typeAB" route="CA" depart="1055" />
    <vehicle id="CA_332" type="typeAB" route="CA" depart="1056" />
    <vehicle id="AB_333" type="typeAB" route="AB" depart="1057" color="1,0,0" />
    <vehicle id="BC_334" type="typeAB" route="BC" depart="1058" />
    <vehicle id="AB_335" type="typeAB" route="AB" depart="1063" color="1,0,0" />
    <vehicle id="AC_336" type="typeAB" route="AC" depart="1065" color="0,1,0" />
    <vehicle id="CA_337" type="typeAB" route="CA" depart="1066" />
    <vehicle id="AC_338" type="typeAB" route="AC" depart="1068" color="0,1,0" />
    <vehicle id="AC_339" type="typeAB" route="AC" depart="1070" color="0,1,0" />
    <vehicle id="BA_340" type="typeAB" route="BA" depart="1071" />
    <vehicle id="CA_341" type="typeAB" route="CA" depart="1076" />
    <vehicle id="AB_342" type="typeAB" route="AB" depart="1079" color="1,0,0" />
    <vehicle id="BA_343" type="typeAB" route="BA" depart="1079" />
    <vehicle id="AC_344" type="typeAB" route="AC" depart="1081" color="0,1,0" />
    <vehicle id="CA_345" type="typeAB" route="CA" depart="1082" />
    <vehicle id="BA_346" type="typeAB" route="BA" depart="1083" />
    <vehicle id="CB_347" type="typeAB" route="CB" depart="1085" />
    <vehicle id="BA_348" type="typeAB" route="BA" depart="1088" />
    <vehicle id="BA_349" type="typeAB" route="BA" depart="1089" />
    <vehicle id="BA_350" type="typeAB" route="BA" depart="1090" />
    <vehicle id="CB_351" type="typeAB" route="CB" depart="1091" />
    <vehicle id="BA_352" type="typeAB" route="BA" depart="1094" />
    <vehicle id="BC_353" type="typeAB" route="BC" depart="1095" />
    <vehicle id="AB_354" type="typeAB" route="AB" depart="1097" color="1,0,0" />
    <vehicle id="BA_355" type="typeAB" route="BA" depart="1099" />
    <vehicle id="CA_356" type="typeAB" route="CA" depart="1100" />
    <vehicle id="AC_357" type="typeAB" route="AC" depart="1102" color="0,1,0" />
    <vehicle id="BA_358" type="typeAB" route="BA" depart="1105" />
    <vehicle id="AC_359" type="typeAB" route="AC" depart="1106" color="0,1,0" />
    <vehicle id="AB_360" type="typeAB" route="AB" depart="1108" color="1,0,0" />
    <vehicle id="AC_361" type="typeAB" route="AC" depart="1119" color="0,1,0" />
    <vehicle id="BA_362" type="typeAB" route="BA" depart="1122" />
    <vehicle id="CB_363" type="typeAB" route="CB" depart="1123" />
    <vehicle id="CB_364" type="typeAB" route="CB" depart="1126" />
    <vehicle id="AB_365" type="typeAB" route="AB" depart="1127" color="1,0,0" />
    <vehicle id="AC_366" type="typeAB" route="AC" depart="1128" color="0,1,0" />
    <vehicle id="AC_367" type="typeAB" route="AC" depart="1129" color="0,1,0" />
    <vehicle id="AC_368" type="typeAB" route="AC" depart="1131" color="0,1,0" />
    <vehicle id="AB_369" type="typeAB" route="AB" depart="1134" color="1,0,0" />
    <vehicle id="CA_370" type="typeAB" route="CA" depart="1136" />
    <vehicle id="AB_371" type="typeAB" route="AB" depart="1139" color="1,0,0" />
    <vehicle id="AB_372" type="typeAB" route="AB" depart="1148" color="1,0,0" />
    <vehicle id="AC_373" type="typeAB" route="AC" depart="1152" color="0,1,0" />
    <vehicle id="AB_374" type="typeAB" route="AB" depart="1155" color="1,0,0" />
    <vehicle id="AB_375" type="typeAB" route="AB" depart="1162" color="1,0,0" />
    <vehicle id="AC_376" type="typeAB" route="AC" depart="1162" color="0,1,0" />
    <vehicle id="BA_377" type="typeAB" route="BA" depart="1163" />
    <vehicle id="AB_378" type="typeAB" route="AB" depart="1174" color="1,0,0" />
    <vehicle id="BA_379" type="typeAB" route="BA" depart="1181" />
    <vehicle id="BC_380" type="typeAB" route="BC" depart="1183" />
    <vehicle id="AC_381" type="typeAB" route="AC" depart="1185" color="0,1,0" />
    <vehicle id="AB_382" type="typeAB" route="AB" depart="1186" color="1,0,0" />
    <vehicle id="BC_383" type="typeAB" route="BC" depart="1189" />
    <vehicle id="AB_384" type="typeAB" route="AB" depart="1192" color="1,0,0" />
    <vehicle id="AB_385" type="typeAB" route="AB" depart="1194" color="1,0,0" />
    <vehicle id="CA_386" type="typeAB" route="CA" depart="1196" />
    <vehicle id="AB_387" type="typeAB" route="AB" depart="1204" color="1,0,0" />
    <vehicle id="AB_388" type="typeAB" route="AB" depart="1208" color="1,0,0" />
    <vehicle id="CA_389" type="typeAB" route="CA" depart="1209" />
    <vehicle id="CA_390" type="typeAB" route="CA" depart="1211" />
    <vehicle id="AB_391" type="typeAB" route="AB" depart="1226" color="1,0,0" />
    <vehicle id="AB_392" type="typeAB" route="AB" depart="1229" color="1,0,0" />
    <vehicle id="CA_393" type="typeAB" route="CA" depart="1232" />
    <vehicle id="BC_394" type="typeAB" route="BC" depart="1236" />
    <vehicle id="AC_395" type="typeAB" route="AC" depart="1248" color="0,1,0" />
    <vehicle id="CA_396" type="typeAB" route="CA" depart="1250" />
    <vehicle id="BC_397" type="typeAB" route="BC" depart="1257" />
    <vehicle id="CA_398" type="typeAB" route="CA" depart="1258" />
    <vehicle id="CA_399" type="typeAB" route="CA" depart="1259" />
    <vehicle id="BA_400" type="typeAB" route="BA" depart="1264" />
    <vehicle id="AB_401" type="typeAB" route="AB" depart="1270" color="1,0,0" />
    <vehicle id="BA_402" type="typeAB" route="BA" depart="1275" />
    <vehicle id="CA_403" type="typeAB" route="CA" depart="1275" />
    <vehicle id="BC_404" type="typeAB" route="BC" depart="1276" />
    <vehicle id="AB_405" type="typeAB" route="AB" depart="1281" color="1,0,0" />
    <vehicle id="AC_406" type="typeAB" route="AC" depart="1285" color="0,1,0" />