<?xml version="1.0" encoding="UTF-8"?>

<!-- generated on Sun Oct 15 14:39:02 2017 by SUMO duarouter Version 0.25.0
<?xml version="1.0" encoding="UTF-8"?>

<configuration xmlns:xsi="http://www.w3.org/2001/XMLSchema-instance" xsi:noNamespaceSchemaLocation="http://sumo.dlr.de/xsd/duarouterConfiguration.xsd">

    <input>
        <net-file value="map.net.xml"/>
        <trip-files value="trips.trips.xml"/>
    </input>

    <output>
        <output-file value="map.rou.xml"/>
    </output>

    <processing>
        <ignore-errors value="true"/>
    </processing>

    <time>
        <begin value="0"/>
        <end value="100.0"/>
    </time>

    <report>
        <no-warnings value="true"/>
        <no-step-log value="true"/>
    </report>

</configuration>
-->

<routes xmlns:xsi="http://www.w3.org/2001/XMLSchema-instance" xsi:noNamespaceSchemaLocation="http://sumo.dlr.de/xsd/routes_file.xsd">
    <vehicle id="4" depart="4.00">
        <route edges="95641250#1 95641250#2 95641250#3 31241096#0 31241096#1 31241096#2 -31241103#0 31241077#1 31241080#0 31241080#1 371364054"/>
    </vehicle>
    <vehicle id="5" depart="5.00">
        <route edges="95641250#1 95641250#2 95641250#3 31241096#0 31241096#1 -31241092#1 31241105#0 31241105#1 -31241105#1"/>
    </vehicle>
    <vehicle id="6" depart="6.00">
        <route edges="31241059#2 -31241059#2 -31241059#1 -31241080#2 -46820423"/>
    </vehicle>
    <vehicle id="8" depart="8.00">
        <route edges="-31241047#4 31241047#4"/>
    </vehicle>
    <vehicle id="9" depart="9.00">
        <route edges="-44121608 44121608 -199148840#1 -199148840#0 -30747269 95641250#2 95641250#3 31241096#0 31241096#1 -31241092#1 31241105#0 31241105#1 -31241070#1 -371364053#1 371364053#1"/>
    </vehicle>
    <vehicle id="13" depart="13.00">
        <route edges="31241077#0 31241103#0 31241103#1 -31241047#2 -46882007#3 -46882007#2 -46882007#1 -46882007#0"/>
    </vehicle>
    <vehicle id="14" depart="14.00">
        <route edges="30970582#0 30970582#1"/>
    </vehicle>
    <vehicle id="15" depart="15.00">
        <route edges="-199148840#5 -199148840#4 -199148840#3 -199148840#2 -199148840#1 -199148840#0 -30747269 95641250#2 95641250#3 31241096#0 95641232#1 95641232#2 95641232#3 95641232#4 95641232#5"/>
    </vehicle>
    <vehicle id="16" depart="16.00">
        <route edges="95641232#0 31241096#1 31241096#2 -31241103#0 31241077#1 31241080#0 371364052#0"/>
    </vehicle>
    <vehicle id="18" depart="18.00">
        <route edges="-31241047#6 -31241047#5 -31241047#4 -31241047#3 -31241047#2 -31241047#1 -31241047#0 95641232#5"/>
    </vehicle>
    <vehicle id="21" depart="21.00">
        <route edges="-199148840#5 -199148840#4 -199148840#3 -199148840#2 -199148840#1 -199148840#0 -30747269 95641250#2 95641250#3"/>
    </vehicle>
    <vehicle id="27" depart="27.00">
        <route edges="199148840#1 -199148840#1 -199148840#0 -30747269 95641250#2 95641250#3 31241096#0 31241096#1 31241096#2 -31241103#0 31241077#1 31241080#0 31241080#1 31241080#2 31241059#1"/>
    </vehicle>
    <vehicle id="28" depart="28.00">
        <route edges="386457133#0 -386457149#1 -386457149#0 30747010#3 30747010#4 -30747269 95641250#2 95641250#3 31241096#0 31241096#1 31241096#2 -31241103#0 -31241077#0 31241047#4 -31241047#4"/>
    </vehicle>
    <vehicle id="31" depart="31.00">
        <route edges="46820423 -31241080#1 -31241080#0 31241080#0"/>
    </vehicle>
    <vehicle id="40" depart="40.00">
        <route edges="31241047#4 -31241047#4 -31241047#3 -31241047#2 -46882007#3 -46882007#2 46881975"/>
    </vehicle>
    <vehicle id="41" depart="41.00">
        <route edges="95641250#1"/>
    </vehicle>
    <vehicle id="46" depart="46.00">
        <route edges="31241092#0 31241092#1 31241092#2 31241047#1 -46882007#3 -46882007#2 -46882007#1"/>
    </vehicle>
    <vehicle id="48" depart="48.00">
        <route edges="95641232#0 31241096#1 31241096#2 -31241103#0 -31241077#0"/>
    </vehicle>
    <vehicle id="49" depart="49.00">
        <route edges="-386457133#0"/>
    </vehicle>
    <vehicle id="55" depart="55.00">
        <route edges="95641250#1 30747269 199148840#0 199148840#1 -44121608"/>
    </vehicle>
    <vehicle id="56" depart="56.00">
        <route edges="120647969 -30747010#1 -30747010#0"/>
    </vehicle>
    <vehicle id="59" depart="59.00">
        <route edges="-431428087 199148840#3 386457133#0 -386457149#1 -386457149#0 -30747010#2 -30747010#1 -30747010#0"/>
    </vehicle>
    <vehicle id="60" depart="60.00">
        <route edges="-431428087 -199148840#2 -199148840#1 -199148840#0 -30747269 95641250#2 95641250#3 31241096#0 31241096#1 31241092#2 -31241092#2"/>
    </vehicle>
    <vehicle id="65" depart="65.00">
        <route edges="-30747010#4 30747010#4 -30747269 95641250#2 95641250#3 31241096#0 31241096#1 -31241092#1 31241105#0 31241105#1"/>
    </vehicle>
    <vehicle id="66" depart="66.00">
        <route edges="371364055 371364053#1 31241070#1 -31241105#1 -31241077#2 -31241077#1 31241103#0 31241103#1 -31241047#2 -46882007#3 46882007#3"/>
    </vehicle>
    <vehicle id="67" depart="67.00">
        <route edges="46503473#0 -431175207 -51813513#3 -51813513#2 -51813513#1 44121608 -44121608"/>
    </vehicle>
    <vehicle id="68" depart="68.00">
        <route edges="-386457133#0 -199148840#3 -199148840#2 -199148840#1 -199148840#0 -30747269 95641250#2 95641250#3 31241096#0 95641232#1 95641232#2 95641232#3 95641232#4 31241047#0"/>
    </vehicle>
    <vehicle id="69" depart="69.00">
        <route edges="-199148840#5 -199148840#4 -199148840#3 -199148840#2 -199148840#1 -199148840#0 -30747269 95641250#2 95641250#3 31241096#0 31241096#1 31241096#2 -31241103#0 31241077#1 31241080#0 31241080#1 371364054"/>
    </vehicle>
    <vehicle id="70" depart="70.00">
        <route edges="-199148840#5 -46506047 -51813513#3 -51813513#2 -51813513#1 -51813513#0 -23240554#1 23092383#0 23092383#1"/>
    </vehicle>
    <vehicle id="73" depart="73.00">
        <route edges="23092150#0 43441036 -23092383#0 23240554#1 51813513#0 44121608 -199148840#1 -199148840#0 -30747269 95641250#2 95641250#3 31241096#0 95641232#1 369893920 369893922"/>
    </vehicle>
    <vehicle id="82" depart="82.00">
        <route edges="199148840#3 199148840#4 199148840#5"/>
    </vehicle>
    <vehicle id="83" depart="83.00">
        <route edges="-31241092#1 31241105#0 31241105#1 -31241070#1 -371364053#1 -371364055 371364052#1 -31241059#1"/>
    </vehicle>
    <vehicle id="84" depart="84.00">
        <route edges="30970582#0 30970582#1"/>
    </vehicle>
    <vehicle id="85" depart="85.00">
        <route edges="-199148840#5 199148840#5"/>
    </vehicle>
    <vehicle id="88" depart="88.00">
        <route edges="-199148840#5 199148840#5"/>
    </vehicle>
    <vehicle id="91" depart="91.00">
        <route edges="-46506047 -51813513#3 -51813513#2 -51813513#1 44121608 -199148840#1 -199148840#0 -30747269 95641250#2 95641250#3 95641250#4"/>
    </vehicle>
    <vehicle id="92" depart="92.00">
        <route edges="-199148840#5 -199148840#4 -199148840#3 -199148840#2 -199148840#1 -199148840#0 -30747269 95641250#2 95641250#3 31241096#0 31241096#1 31241096#2 -31241103#0 31241077#1 31241080#0 31241080#1 371364054"/>
    </vehicle>
    <vehicle id="93" depart="93.00">
        <route edges="-275429971 -30747010#0"/>
    </vehicle>
    <vehicle id="96" depart="96.00">
        <route edges="-43441036 43441036 -23092383#0 23240554#1 51813513#0 44121608 -199148840#1 -199148840#0 -30747269 95641250#2 95641250#3 31241096#0 95641232#1 95641232#2 95641232#3 95641232#4 95641232#5 95641232#6"/>
    </vehicle>
    <vehicle id="98" depart="98.00">
        <route edges="-199148840#5 199148840#5"/>
    </vehicle>
</routes>
