<?xml version="1.0"?>
<!-- generated on 2017-10-15 14:39:02.259745 by $Id: randomTrips.py 20482 2016-04-18 20:49:42Z behrisch $
  options: -n map.net.xml -r map.rou.xml -e 100 -l
-->
<trips>
    <trip id="0" depart="0.00" from="95641232#6" to="-31241047#5" />
    <trip id="1" depart="1.00" from="46882007#2" to="30970582#1" />
    <trip id="2" depart="2.00" from="95641232#0" to="30970582#1" />
    <trip id="3" depart="3.00" from="31241092#0" to="-23240554#0" />
    <trip id="4" depart="4.00" from="95641250#1" to="371364054" />
    <trip id="5" depart="5.00" from="95641250#1" to="-31241105#1" />
    <trip id="6" depart="6.00" from="31241059#2" to="-46820423" />
    <trip id="7" depart="7.00" from="-31241096#2" to="95641250#1" />
    <trip id="8" depart="8.00" from="-31241047#4" to="31241047#4" />
    <trip id="9" depart="9.00" from="-44121608" to="371364053#1" />
    <trip id="10" depart="10.00" from="95641232#0" to="30970582#1" />
    <trip id="11" depart="11.00" from="31241077#0" to="30747010#3" />
    <trip id="12" depart="12.00" from="-31241092#1" to="-23240554#0" />
    <trip id="13" depart="13.00" from="31241077#0" to="-46882007#0" />
    <trip id="14" depart="14.00" from="30970582#0" to="30970582#1" />
    <trip id="15" depart="15.00" from="-199148840#5" to="95641232#5" />
    <trip id="16" depart="16.00" from="95641232#0" to="371364052#0" />
    <trip id="17" depart="17.00" from="30970582#0" to="-199148840#1" />
    <trip id="18" depart="18.00" from="-31241047#6" to="95641232#5" />
    <trip id="19" depart="19.00" from="-199148840#5" to="30970582#1" />
    <trip id="20" depart="20.00" from="31241080#0" to="30970582#1" />
    <trip id="21" depart="21.00" from="-199148840#5" to="95641250#3" />
    <trip id="22" depart="22.00" from="95641232#6" to="30970582#1" />
    <trip id="23" depart="23.00" from="369893922" to="-30747269" />
    <trip id="24" depart="24.00" from="95641232#6" to="199148840#5" />
    <trip id="25" depart="25.00" from="95641232#5" to="95641250#1" />
    <trip id="26" depart="26.00" from="-23092383#2" to="30970582#1" />
    <trip id="27" depart="27.00" from="199148840#1" to="31241059#1" />
    <trip id="28" depart="28.00" from="386457133#0" to="-31241047#4" />
    <trip id="29" depart="29.00" from="31241092#1" to="30747010#1" />
    <trip id="30" depart="30.00" from="-31241105#0" to="30970582#1" />
    <trip id="31" depart="31.00" from="46820423" to="31241080#0" />
    <trip id="32" depart="32.00" from="-31241092#2" to="-386457133#0" />
    <trip id="33" depart="33.00" from="-199148840#5" to="30970582#1" />
    <trip id="34" depart="34.00" from="95641232#5" to="30970582#1" />
    <trip id="35" depart="35.00" from="-46820423" to="-51813513#0" />
    <trip id="36" depart="36.00" from="-31241047#4" to="199148840#5" />
    <trip id="37" depart="37.00" from="30970582#0" to="31241096#2" />
    <trip id="38" depart="38.00" from="95641250#2" to="199148840#5" />
    <trip id="39" depart="39.00" from="30970582#0" to="95641232#2" />
    <trip id="40" depart="40.00" from="31241047#4" to="46881975" />
    <trip id="41" depart="41.00" from="95641250#1" to="95641250#1" />
    <trip id="42" depart="42.00" from="371364053#0" to="-30747010#4" />
    <trip id="43" depart="43.00" from="-31241047#6" to="30970582#1" />
    <trip id="44" depart="44.00" from="95641232#6" to="199148840#5" />
    <trip id="45" depart="45.00" from="-30747010#4" to="30970582#1" />
    <trip id="46" depart="46.00" from="31241092#0" to="-46882007#1" />
    <trip id="47" depart="47.00" from="46881975" to="30970582#1" />
    <trip id="48" depart="48.00" from="95641232#0" to="-31241077#0" />
    <trip id="49" depart="49.00" from="-386457133#0" to="-386457133#0" />
    <trip id="50" depart="50.00" from="30970582#0" to="95641232#5" />
    <trip id="51" depart="51.00" from="-31241103#1" to="30970582#1" />
    <trip id="52" depart="52.00" from="95641250#1" to="30970582#1" />
    <trip id="53" depart="53.00" from="-31241047#6" to="30970582#1" />
    <trip id="54" depart="54.00" from="46881975" to="-30747010#0" />
    <trip id="55" depart="55.00" from="95641250#1" to="-44121608" />
    <trip id="56" depart="56.00" from="120647969" to="-30747010#0" />
    <trip id="57" depart="57.00" from="95641232#6" to="95641232#5" />
    <trip id="58" depart="58.00" from="46881973" to="199148840#5" />
    <trip id="59" depart="59.00" from="-431428087" to="-30747010#0" />
    <trip id="60" depart="60.00" from="-431428087" to="-31241092#2" />
    <trip id="61" depart="61.00" from="-369893922" to="23092383#2" />
    <trip id="62" depart="62.00" from="95641250#0" to="30970582#1" />
    <trip id="63" depart="63.00" from="30970582#0" to="431428087" />
    <trip id="64" depart="64.00" from="-46882007#3" to="199148840#5" />
    <trip id="65" depart="65.00" from="-30747010#4" to="31241105#1" />
    <trip id="66" depart="66.00" from="371364055" to="46882007#3" />
    <trip id="67" depart="67.00" from="46503473#0" to="-44121608" />
    <trip id="68" depart="68.00" from="-386457133#0" to="31241047#0" />
    <trip id="69" depart="69.00" from="-199148840#5" to="371364054" />
    <trip id="70" depart="70.00" from="-199148840#5" to="23092383#1" />
    <trip id="71" depart="71.00" from="95641250#1" to="30970582#1" />
    <trip id="72" depart="72.00" from="30970582#0" to="31241080#0" />
    <trip id="73" depart="73.00" from="23092150#0" to="369893922" />
    <trip id="74" depart="74.00" from="30970582#0" to="-120647969" />
    <trip id="75" depart="75.00" from="95641250#0" to="30970582#1" />
    <trip id="76" depart="76.00" from="-31241047#4" to="30747010#3" />
    <trip id="77" depart="77.00" from="-31241047#5" to="95641250#1" />
    <trip id="78" depart="78.00" from="95641232#6" to="31241080#0" />
    <trip id="79" depart="79.00" from="46881975" to="-30747010#0" />
    <trip id="80" depart="80.00" from="30970582#0" to="31241096#1" />
    <trip id="81" depart="81.00" from="30970582#0" to="46820423" />
    <trip id="82" depart="82.00" from="199148840#3" to="199148840#5" />
    <trip id="83" depart="83.00" from="-31241092#1" to="-31241059#1" />
    <trip id="84" depart="84.00" from="30970582#0" to="30970582#1" />
    <trip id="85" depart="85.00" from="-199148840#5" to="199148840#5" />
    <trip id="86" depart="86.00" from="95641232#5" to="30970582#1" />
    <trip id="87" depart="87.00" from="30747010#0" to="30970582#1" />
    <trip id="88" depart="88.00" from="-199148840#5" to="199148840#5" />
    <trip id="89" depart="89.00" from="-199148840#5" to="30970582#1" />
    <trip id="90" depart="90.00" from="23240554#0" to="30970582#1" />
    <trip id="91" depart="91.00" from="-46506047" to="95641250#4" />
    <trip id="92" depart="92.00" from="-199148840#5" to="371364054" />
    <trip id="93" depart="93.00" from="-275429971" to="-30747010#0" />
    <trip id="94" depart="94.00" from="95641250#0" to="30970582#1" />
    <trip id="95" depart="95.00" from="95641250#0" to="30970582#1" />
    <trip id="96" depart="96.00" from="-43441036" to="95641232#6" />
    <trip id="97" depart="97.00" from="30970582#0" to="31241077#2" />
    <trip id="98" depart="98.00" from="-199148840#5" to="199148840#5" />
    <trip id="99" depart="99.00" from="46503473#0" to="30970582#1" />
</trips>
